
 Fire Dynamics Simulator

 Current Date     : November  7, 2025  10:18:44
 Revision         : FDS-6.10.1-0-g12efa16-release
 Revision Date    : Wed Apr 2 17:38:58 2025 -0400
 Compiler         : Intel(R) Fortran Compiler for applications running on Intel(R) 64, Version 2025.1.0 Build 20250317
 Compilation Date : Fri-04/04/2025-08:49-AM

 Number of MPI Processes:  1

 MPI version: 3.1
 MPI library version: Intel(R) MPI Library 2021.6 for Windows* OS

 Hypre library version: v2.32.0
 Sundials library version: v6.7.0

 Job TITLE        : Single Couch Test Case
 Job ID string    : case001


 Grid Dimensions, Mesh     1

   Cells in the X Direction            24
   Cells in the Y Direction            10
   Cells in the Z Direction            24
   Number of Grid Cells              5760


 Physical Dimensions, Mesh     1

   Length (m)                       2.400
   Width  (m)                       1.000
   Height (m)                       2.400

 Miscellaneous Parameters

   Total Number of Grid Cells        5760
   Maximum Cell Aspect Ratio        1.000
   Initial Time Step (s)            0.103
   CFL Velocity Norm                    2
   Simulation Start Time (s)          0.0
   Simulation End Time (s)          120.0
   Background Pressure (Pa)     101325.00
   Ambient Temperature (C)          20.00

   3D Cartesian
   VLES Calculation
   Eddy Viscosity Model:  Deardorff (C_DEARDORFF = 0.10)
   Surface UPHOLSTERY Eddy Viscosity Model:  WALE (C_WALE = 0.60)
   Surface WALL Eddy Viscosity Model:  WALE (C_WALE = 0.60)
   Surface ignitor Eddy Viscosity Model:  WALE (C_WALE = 0.60)
   Turbulent Prandtl Number:         0.50
   Turbulent Schmidt Number:         0.50


 Pressure solver information

   Solver:                            FFT
   Velocity tolerance (m/s):    5.000E-02
   Press eqn res tol (1/s^2):   2.000E+03
   Max pressure iterations:            10


 Background Stratification

      Z (m)     P_0 (Pa)    TMP_0 (C)
   ------------------------------------
        2.35    101297.45     20.00
        2.25    101298.62     20.00
        2.15    101299.80     20.00
        2.05    101300.97     20.00
        1.95    101302.14     20.00
        1.85    101303.31     20.00
        1.75    101304.48     20.00
        1.65    101305.65     20.00
        1.55    101306.83     20.00
        1.45    101308.00     20.00
        1.35    101309.17     20.00
        1.25    101310.34     20.00
        1.15    101311.51     20.00
        1.05    101312.68     20.00
        0.95    101313.86     20.00
        0.85    101315.03     20.00
        0.75    101316.20     20.00
        0.65    101317.38     20.00
        0.55    101318.55     20.00
        0.45    101319.72     20.00
        0.35    101320.89     20.00
        0.25    101322.06     20.00
        0.15    101323.23     20.00
        0.05    101324.41     20.00


 Mass Fraction Transformation Matrix to Convert Species Mixtures (Columns) to Primitive Species (Rows)

                         AIR       PROPANE   PRODUCTS
   NITROGEN              0.762470  0.000000  0.716516
   OXYGEN                0.230997  0.000000  0.000000
   CARBON DIOXIDE        0.000591  0.000000  0.178805
   WATER VAPOR           0.005941  0.000000  0.104077
   CARBON MONOXIDE       0.000000  0.000000  0.000000
   SOOT                  0.000000  0.000000  0.000603
   HYDROGEN              0.000000  0.000000  0.000000
   HYDROGEN CYANIDE      0.000000  0.000000  0.000000
   PROPANE               0.000000  1.000000  0.000000


 Primitive Species Information

   NITROGEN
   Gas Species
   Molecular Weight (g/mol)                28.01340
   Ambient Density (kg/m^3)                1.165
           Enthalpy of Formation (J/kg)  0.000E+00

   OXYGEN
   Gas Species
   Molecular Weight (g/mol)                31.99880
   Ambient Density (kg/m^3)                1.330
           Enthalpy of Formation (J/kg)  0.000E+00

   CARBON DIOXIDE
   Gas Species
   Molecular Weight (g/mol)                44.00950
   Ambient Density (kg/m^3)                1.830
           Enthalpy of Formation (J/kg) -8.941E+06

   WATER VAPOR
   Gas Species
   Molecular Weight (g/mol)                18.01528
   Ambient Density (kg/m^3)                0.749
           Enthalpy of Formation (J/kg) -1.342E+07

   CARBON MONOXIDE
   Gas Species
   Molecular Weight (g/mol)                28.01010
   Ambient Density (kg/m^3)                1.164
           Enthalpy of Formation (J/kg) -3.946E+06

   SOOT
   Gas Species
   Molecular Weight (g/mol)                12.01070
   Ambient Density (kg/m^3)                0.499
           Enthalpy of Formation (J/kg)  0.000E+00

   HYDROGEN
   Gas Species
   Molecular Weight (g/mol)                 2.01588
   Ambient Density (kg/m^3)                0.084
           Enthalpy of Formation (J/kg)  0.000E+00

   HYDROGEN CYANIDE
   Gas Species
   Molecular Weight (g/mol)                27.02534
   Ambient Density (kg/m^3)                1.123
           Enthalpy of Formation (J/kg)  4.924E+06

   PROPANE
   Gas Species
   Molecular Weight (g/mol)                44.09562
   Ambient Density (kg/m^3)                1.833
           Enthalpy of Formation (J/kg) -2.374E+06


 Tracked (Lumped) Species Information

   AIR
   Molecular Weight (g/mol)            28.75198
   Ambient Density (kg/m^3)            1.195
   Initial Mass Fraction               1.000
   Enthalpy of Formation (J/kg)     -8.504E+04

   Sub Species                    Mass Fraction     Mole Fraction
   NITROGEN                       7.624699E-01      7.825727E-01
   OXYGEN                         2.309974E-01      2.075588E-01
   CARBON DIOXIDE                 5.914650E-04      3.864118E-04
   WATER VAPOR                    5.941209E-03      9.482037E-03
 
     Viscosity (kg/m/s) Ambient,  293 K:  1.796E-05
                                  500 K:  2.612E-05
                                 1000 K:  4.125E-05
                                 1500 K:  5.371E-05
                                 2000 K:  6.476E-05
   Therm. Cond. (W/m/K) Ambient,  293 K:  2.556E-02
                                  500 K:  3.814E-02
                                 1000 K:  6.686E-02
                                 1500 K:  9.249E-02
                                 2000 K:  1.153E-01
        Enthalpy (J/kg) Ambient,  293 K: -9.012E+04
                                  500 K:  1.222E+05
                                 1000 K:  6.721E+05
                                 1500 K:  1.270E+06
                                 2000 K:  1.896E+06
    Spec. Heat (J/kg/K) Ambient,  293 K:  1.016E+03
                                  500 K:  1.042E+03
                                 1000 K:  1.156E+03
                                 1500 K:  1.229E+03
                                 2000 K:  1.270E+03
   Diff. Coeff. (m^2/s) Ambient,  293 K:  1.991E-05
                                  500 K:  4.961E-05
                                 1000 K:  1.580E-04
                                 1500 K:  3.095E-04
                                 2000 K:  4.984E-04
     Gibbs Energy Amb. (kJ/mol),  293 K: -5.873E+01
                                  500 K: -1.007E+02
                                 1000 K: -2.117E+02
                                 1500 K: -3.312E+02
                                 2000 K: -4.568E+02

   PROPANE
   Molecular Weight (g/mol)            44.09562
   Ambient Density (kg/m^3)            1.833
   Initial Mass Fraction               0.000
   Enthalpy of Formation (J/kg)     -2.374E+06

   Sub Species                    Mass Fraction     Mole Fraction
   PROPANE                        1.000000E+00      1.000000E+00
 
     Viscosity (kg/m/s) Ambient,  293 K:  8.079E-06
                                  500 K:  1.310E-05
                                 1000 K:  2.234E-05
                                 1500 K:  2.955E-05
                                 2000 K:  3.574E-05
   Therm. Cond. (W/m/K) Ambient,  293 K:  1.821E-02
                                  500 K:  4.581E-02
                                 1000 K:  1.212E-01
                                 1500 K:  1.890E-01
                                 2000 K:  2.465E-01
        Enthalpy (J/kg) Ambient,  293 K: -2.382E+06
                                  500 K: -1.946E+06
                                 1000 K: -2.769E+05
                                 1500 K:  1.900E+06
                                 2000 K:  4.336E+06
    Spec. Heat (J/kg/K) Ambient,  293 K:  1.646E+03
                                  500 K:  2.553E+03
                                 1000 K:  3.960E+03
                                 1500 K:  4.669E+03
                                 2000 K:  5.034E+03
   Diff. Coeff. (m^2/s) Ambient,  293 K:  1.110E-05
                                  500 K:  2.862E-05
                                 1000 K:  9.316E-05
                                 1500 K:  1.833E-04
                                 2000 K:  2.954E-04
     Gibbs Energy Amb. (kJ/mol),  293 K: -1.839E+02
                                  500 K: -2.447E+02
                                 1000 K: -4.295E+02
                                 1500 K: -6.584E+02
                                 2000 K: -9.217E+02

   PRODUCTS
   Molecular Weight (g/mol)            28.19459
   Ambient Density (kg/m^3)            1.172
   Initial Mass Fraction               0.000
   Enthalpy of Formation (J/kg)     -2.996E+06

   Sub Species                    Mass Fraction     Mole Fraction
   NITROGEN                       7.165157E-01      7.211502E-01
   CARBON DIOXIDE                 1.788048E-01      1.145509E-01
   WATER VAPOR                    1.040767E-01      1.628840E-01
   CARBON MONOXIDE                0.000000E+00      0.000000E+00
   SOOT                           6.027018E-04      1.414816E-03
   HYDROGEN CYANIDE               0.000000E+00      0.000000E+00
 
     Viscosity (kg/m/s) Ambient,  293 K:  1.612E-05
                                  500 K:  2.390E-05
                                 1000 K:  3.894E-05
                                 1500 K:  5.144E-05
                                 2000 K:  6.246E-05
   Therm. Cond. (W/m/K) Ambient,  293 K:  2.341E-02
                                  500 K:  3.618E-02
                                 1000 K:  6.710E-02
                                 1500 K:  9.625E-02
                                 2000 K:  1.224E-01
        Enthalpy (J/kg) Ambient,  293 K: -3.001E+06
                                  500 K: -2.771E+06
                                 1000 K: -2.160E+06
                                 1500 K: -1.483E+06
                                 2000 K: -7.648E+05
    Spec. Heat (J/kg/K) Ambient,  293 K:  1.089E+03
                                  500 K:  1.142E+03
                                 1000 K:  1.297E+03
                                 1500 K:  1.403E+03
                                 2000 K:  1.465E+03
   Diff. Coeff. (m^2/s) Ambient,  293 K:  1.951E-05
                                  500 K:  4.953E-05
                                 1000 K:  1.600E-04
                                 1500 K:  3.146E-04
                                 2000 K:  5.074E-04
     Gibbs Energy Amb. (kJ/mol),  293 K: -1.527E+02
                                  500 K: -1.949E+02
                                 1000 K: -3.073E+02
                                 1500 K: -4.294E+02
                                 2000 K: -5.584E+02


 Gas Phase Reaction Information

   Solver Details:  

      ODE Solver:  EXPLICIT EULER

      Fuel                                           Heat of Combustion (kJ/kg)
      PROPANE                                                        46006.9918
      EPUMO2:                                                        12773.6868

      Primitive Species Stoich. Coeff.
      Species ID                                                          Molar
      OXYGEN                                                          -4.963286
      CARBON DIOXIDE                                                   2.963286
      WATER VAPOR                                                      4.000000
      SOOT                                                             0.036714
      PROPANE                                                         -1.000000

      Tracked (Lumped) Species Stoich. Coeff.
      Species ID                                             Molar         Mass
      AIR                                               -23.912674   -15.591952
      PROPANE                                            -1.000000    -1.000000
      PRODUCTS                                           25.949387    16.591952

      Reaction Kinetics

      Fast chemistry

      Extinction Model:  EXTINCTION 1
      Auto-Ignition Temperature (C):            -273.1
      Critical Flame Temperature (C):           1447.0

      Prescribed Radiative Fraction:             0.290


 Material Information

   1 FABRIC
     Properties completely fabricated
     Emissivity:                                  0.900
     Density (kg/m3):                             100.0
     Specific Heat (kJ/kg/K) Ambient,  293 K:  1.000E+00
                                       350 K:  1.000E+00
                                       500 K:  1.000E+00
                                       800 K:  1.000E+00
     Therm. Cond. (W/m/K) Ambient,     293 K:  1.000E-01
                                       350 K:  1.000E-01
                                       500 K:  1.000E-01
                                       800 K:  1.000E-01
     Enthalpy (kJ/kg) Ambient,         293 K: -4.992E+03
                                       350 K: -4.935E+03
                                       500 K: -4.785E+03
                                       800 K: -4.485E+03
     Reaction  1
        Residue Yields:
        Gaseous Yields:
        AIR                                                         :  0.000
        PROPANE                                                     :  1.000
        PRODUCTS                                                    :  0.000
        A (1/s):                      1.815E+15
        E (J/mol):                    1.988E+05
        H_R (kJ/kg) TMP_REF,  593 K:  3.000E+03
                              553 K:  2.927E+03
                              633 K:  3.078E+03
        N_S:                              1.00
        N_T:                              0.00

   2 FOAM
     Properties completely fabricated
     Emissivity:                                  0.900
     Density (kg/m3):                              40.0
     Specific Heat (kJ/kg/K) Ambient,  293 K:  1.000E+00
                                       350 K:  1.000E+00
                                       500 K:  1.000E+00
                                       800 K:  1.000E+00
     Therm. Cond. (W/m/K) Ambient,     293 K:  5.000E-02
                                       350 K:  5.000E-02
                                       500 K:  5.000E-02
                                       800 K:  5.000E-02
     Enthalpy (kJ/kg) Ambient,         293 K: -3.492E+03
                                       350 K: -3.435E+03
                                       500 K: -3.285E+03
                                       800 K: -2.985E+03
     Reaction  1
        Residue Yields:
        Gaseous Yields:
        AIR                                                         :  0.000
        PROPANE                                                     :  1.000
        PRODUCTS                                                    :  0.000
        A (1/s):                      1.815E+15
        E (J/mol):                    1.988E+05
        H_R (kJ/kg) TMP_REF,  593 K:  1.500E+03
                              553 K:  1.427E+03
                              633 K:  1.578E+03
        N_S:                              1.00
        N_T:                              0.00

   3 GYPSUM PLASTER
     Quintiere, Fire Behavior
     Emissivity:                                  0.900
     Density (kg/m3):                            1440.0
     Specific Heat (kJ/kg/K) Ambient,  293 K:  8.400E-01
                                       350 K:  8.400E-01
                                       500 K:  8.400E-01
                                       800 K:  8.400E-01
     Therm. Cond. (W/m/K) Ambient,     293 K:  4.800E-01
                                       350 K:  4.800E-01
                                       500 K:  4.800E-01
                                       800 K:  4.800E-01
     Enthalpy (kJ/kg) Ambient,         293 K:  2.461E+02
                                       350 K:  2.940E+02
                                       500 K:  4.200E+02
                                       800 K:  6.720E+02


 Surface Conditions

   0 INERT

   1 UPHOLSTERY
     Properties completely fabricated
     Material List
          1  FABRIC
          2  FOAM
     Layer  1
        Thickness   (m):  0.00200
        Density (kg/m3):   100.00
        FABRIC, Mass fraction:    1.00
     Layer  2
        Thickness   (m):  0.10000
        Density (kg/m3):    40.00
        FOAM, Mass fraction:    1.00
     Reaction products considered from the first -1.00 layers.
     Total surface density     4.200 kg/m2
     Solid Phase Node, Layer, Coordinates(m):
                    0      1       0.0000000
                    1      1       0.0005000
                    2      1       0.0015000
                    3      1       0.0020000
                    4      2       0.0030638
                    5      2       0.0051915
                    6      2       0.0094468
                    7      2       0.0179574
                    8      2       0.0349787
                    9      2       0.0690213
                   10      2       0.0860426
                   11      2       0.0945532
                   12      2       0.0988085
                   13      2       0.1009362
                   14      2       0.1020000
     Exposed Backing

   2 WALL (DEFAULT)
     Material List
          1  GYPSUM PLASTER
     Layer  1
        Thickness   (m):  0.01200
        Density (kg/m3):  1440.00
        GYPSUM PLASTER, Mass fraction:    1.00
     Reaction products considered from the first -1.00 layers.
     Total surface density    17.280 kg/m2
     Solid Phase Node, Layer, Coordinates(m):
                    0      1       0.0000000
                    1      1       0.0005455
                    2      1       0.0016364
                    3      1       0.0038182
                    4      1       0.0081818
                    5      1       0.0103636
                    6      1       0.0114545
                    7      1       0.0120000
     Exposed Backing

   3 ignitor
     Wall or Vent Temperature (C)  1000.0
     Convection length scale (m)  2.000E-02

   4 OPEN
     Passive Vent to Atmosphere

   5 MIRROR
     Symmetry Plane

   6 INTERPOLATED

   7 PERIODIC

   8 HVAC

   9 MASSLESS TRACER

  10 DROPLET

  11 MASSLESS TARGET

  12 PERIODIC FLOW ONLY


 Lagrangian Particle Classes

   1 ignitor particle
     SURFace ID: ignitor
     # Reals: 77
     # Integers: 20
     # Logicals: 6


 Cut-off Density and Temperature

    Minimum Temperature:  -259.1 C
    Maximum Temperature:  2726.8 C
    Minimum Density:  1.195E-01 kg/m3
    Maximum Density:  7.677E+01 kg/m3


 Device Information

   1 ID: U
     QUANTITY: INTEGRATED INTENSITY
     Coordinates (X,Y,Z):    2.550000E+00    4.350000E+00    7.500000E-01
     TEMPORAL STATISTIC: TIME AVERAGE
   2 ID: burn
     QUANTITY: BURNING RATE
     Coordinates (X,Y,Z):    2.550000E+00    4.400000E+00    7.500000E-01
     TEMPORAL STATISTIC: TIME AVERAGE
   3 ID: con
     QUANTITY: CONVECTIVE HEAT FLUX
     Coordinates (X,Y,Z):    2.550000E+00    4.400000E+00    7.500000E-01
     TEMPORAL STATISTIC: TIME AVERAGE
   4 ID: gas
     QUANTITY: TEMPERATURE
     Coordinates (X,Y,Z):    2.550000E+00    4.350000E+00    7.500000E-01
     TEMPORAL STATISTIC: TIME AVERAGE
   5 ID: gauge
     QUANTITY: GAUGE HEAT FLUX
     Coordinates (X,Y,Z):    2.550000E+00    4.400000E+00    7.500000E-01
     TEMPORAL STATISTIC: TIME AVERAGE
   6 ID: hrrpuv
     QUANTITY: HRRPUV
     Coordinates (X,Y,Z):    2.550000E+00    4.350000E+00    7.500000E-01
     TEMPORAL STATISTIC: TIME AVERAGE
   7 ID: qr
     QUANTITY: RADIATION LOSS
     Coordinates (X,Y,Z):    2.550000E+00    4.350000E+00    7.500000E-01
     TEMPORAL STATISTIC: TIME AVERAGE
   8 ID: rad
     QUANTITY: RADIATIVE HEAT FLUX
     Coordinates (X,Y,Z):    2.550000E+00    4.400000E+00    7.500000E-01
     TEMPORAL STATISTIC: TIME AVERAGE
   9 ID: temp
     QUANTITY: WALL TEMPERATURE
     Coordinates (X,Y,Z):    2.550000E+00    4.400000E+00    7.500000E-01
     TEMPORAL STATISTIC: TIME AVERAGE


 PLOT3D Information

   1 Quantity: TEMPERATURE
   2 Quantity: U-VELOCITY
   3 Quantity: V-VELOCITY
   4 Quantity: W-VELOCITY
   5 Quantity: HRRPUV


 Slice File Information, Mesh     1

   1 Nodes:  15  15   0  10   0  24, Quantity: TEMPERATURE
   2 Nodes:  15  15   0  10   0  24, Quantity: U-VELOCITY
   3 Nodes:  15  15   0  10   0  24, Quantity: V-VELOCITY
   4 Nodes:  15  15   0  10   0  24, Quantity: W-VELOCITY
   5 Nodes:   0  24   0  10   0  24, Quantity: TEMPERATURE


 Boundary File Information

   1 Quantity: WALL TEMPERATURE


 Radiation Model Information

   Number of control angles  104
   Time step increment         3
   Angle increment             5
   Theta band N_phi   Solid angle
     1:        4     0.120
     2:       12     0.114
     3:       16     0.127
     4:       20     0.120
     5:       20     0.120
     6:       16     0.127
     7:       12     0.114
     8:        4     0.120
   Using gray gas absorption.
   Mean beam length  1.000E-01 m
 
 

 Run Time Diagnostics

       Time Step        1   November  7, 2025  10:18:44
       Step Size:  0.103E+00 s, Total Time:    0.10306 s
       Pressure Iterations: 1
       Maximum Velocity Error:  0.18E-02 on Mesh 1 at (4,3,7)
       Maximum Pressure Error:  0.35E-05 on Mesh 1 at (4,10,11)
       ---------------------------------------------------------------
       Max CFL number:  0.24E-01 at (19,2,15)
       Max divergence:  0.31E-01 at (15,8,7)
       Min divergence: -0.13E-05 at (23,5,23)
       Max VN number :  0.25E-01 at (2,5,7)
       No. of Lagrangian Particles:  3
 
       Time Step        2   November  7, 2025  10:18:44
       Step Size:  0.103E+00 s, Total Time:    0.20613 s
       Pressure Iterations: 1
       Maximum Velocity Error:  0.14E-02 on Mesh 1 at (16,8,7)
       Maximum Pressure Error:  0.48E-02 on Mesh 1 at (16,8,7)
       ---------------------------------------------------------------
       Max CFL number:  0.24E-01 at (19,2,15)
       Max divergence:  0.74E-01 at (15,8,7)
       Min divergence: -0.13E-05 at (23,5,23)
       Max VN number :  0.25E-01 at (1,10,7)
       No. of Lagrangian Particles:  3
 
       Time Step        3   November  7, 2025  10:18:44
       Step Size:  0.103E+00 s, Total Time:    0.30919 s
       Pressure Iterations: 1
       Maximum Velocity Error:  0.98E-03 on Mesh 1 at (5,8,6)
       Maximum Pressure Error:  0.96E-02 on Mesh 1 at (16,8,7)
       ---------------------------------------------------------------
       Max CFL number:  0.26E-01 at (15,8,7)
       Max divergence:  0.12E+00 at (15,8,7)
       Min divergence: -0.12E-05 at (23,5,23)
       Max VN number :  0.25E-01 at (1,10,7)
       No. of Lagrangian Particles:  3
 
       Time Step        4   November  7, 2025  10:18:45
       Step Size:  0.103E+00 s, Total Time:    0.41225 s
       Pressure Iterations: 1
       Maximum Velocity Error:  0.72E-03 on Mesh 1 at (14,8,7)
       Maximum Pressure Error:  0.94E-02 on Mesh 1 at (14,8,7)
       ---------------------------------------------------------------
       Max CFL number:  0.36E-01 at (15,8,7)
       Max divergence:  0.17E+00 at (15,8,7)
       Min divergence: -0.12E-05 at (23,5,23)
       Max VN number :  0.24E-01 at (1,10,7)
       No. of Lagrangian Particles:  3
 
       Time Step        5   November  7, 2025  10:18:45
       Step Size:  0.103E+00 s, Total Time:    0.51532 s
       Pressure Iterations: 1
       Maximum Velocity Error:  0.13E-02 on Mesh 1 at (15,8,7)
       Maximum Pressure Error:  0.42E-01 on Mesh 1 at (14,8,7)
       ---------------------------------------------------------------
       Max CFL number:  0.48E-01 at (15,8,7)
       Max divergence:  0.22E+00 at (16,8,7)
       Min divergence: -0.12E-05 at (23,5,23)
       Max VN number :  0.24E-01 at (1,10,7)
       No. of Lagrangian Particles:  3
 
       Time Step        6   November  7, 2025  10:18:45
       Step Size:  0.103E+00 s, Total Time:    0.61838 s
       Pressure Iterations: 1
       Maximum Velocity Error:  0.19E-02 on Mesh 1 at (15,8,7)
       Maximum Pressure Error:  0.98E-01 on Mesh 1 at (16,8,7)
       ---------------------------------------------------------------
       Max CFL number:  0.64E-01 at (15,8,7)
       Max divergence:  0.26E+00 at (15,8,7)
       Min divergence: -0.12E-05 at (23,5,23)
       Max VN number :  0.24E-01 at (1,10,7)
       No. of Lagrangian Particles:  3
 
       Time Step        7   November  7, 2025  10:18:45
       Step Size:  0.103E+00 s, Total Time:    0.72144 s
       Pressure Iterations: 1
       Maximum Velocity Error:  0.24E-02 on Mesh 1 at (15,8,7)
       Maximum Pressure Error:  0.18E+00 on Mesh 1 at (16,8,7)
       ---------------------------------------------------------------
       Max CFL number:  0.87E-01 at (15,8,7)
       Max divergence:  0.29E+00 at (15,8,7)
       Min divergence: -0.12E-05 at (23,5,23)
       Max VN number :  0.29E-01 at (17,8,8)
       No. of Lagrangian Particles:  3
 
       Time Step        8   November  7, 2025  10:18:45
       Step Size:  0.103E+00 s, Total Time:    0.82451 s
       Pressure Iterations: 1
       Maximum Velocity Error:  0.29E-02 on Mesh 1 at (15,8,7)
       Maximum Pressure Error:  0.26E+00 on Mesh 1 at (16,8,7)
       ---------------------------------------------------------------
       Max CFL number:  0.12E+00 at (15,8,7)
       Max divergence:  0.32E+00 at (14,8,7)
       Min divergence: -0.12E-05 at (23,5,23)
       Max VN number :  0.52E-01 at (17,8,7)
       No. of Lagrangian Particles:  3
 
       Time Step        9   November  7, 2025  10:18:45
       Step Size:  0.103E+00 s, Total Time:    0.92757 s
       Pressure Iterations: 1
       Maximum Velocity Error:  0.30E-02 on Mesh 1 at (15,8,7)
       Maximum Pressure Error:  0.31E+00 on Mesh 1 at (15,8,7)
       ---------------------------------------------------------------
       Max CFL number:  0.16E+00 at (15,8,7)
       Max divergence:  0.35E+00 at (16,8,7)
       Min divergence: -0.88E-06 at (2,6,23)
       Max VN number :  0.36E-01 at (17,8,7)
       No. of Lagrangian Particles:  3
 
       Time Step       10   November  7, 2025  10:18:45
       Step Size:  0.103E+00 s, Total Time:    1.03063 s
       Pressure Iterations: 1
       Maximum Velocity Error:  0.32E-02 on Mesh 1 at (15,8,7)
       Maximum Pressure Error:  0.40E+00 on Mesh 1 at (15,8,7)
       ---------------------------------------------------------------
       Max CFL number:  0.21E+00 at (14,8,7)
       Max divergence:  0.37E+00 at (16,8,7)
       Min divergence: -0.87E-06 at (2,6,23)
       Max VN number :  0.38E-01 at (15,8,7)
       No. of Lagrangian Particles:  3
 
       Time Step       20   November  7, 2025  10:18:45
       Step Size:  0.871E-01 s, Total Time:    2.02935 s
       Pressure Iterations: 1
       Maximum Velocity Error:  0.39E-01 on Mesh 1 at (15,8,11)
       Maximum Pressure Error:  0.27E+01 on Mesh 1 at (15,8,11)
       ---------------------------------------------------------------
       Max CFL number:  0.97E+00 at (15,8,10)
       Max divergence:  0.55E+00 at (16,8,7)
       Min divergence: -0.59E-01 at (15,8,11)
       Max VN number :  0.57E+00 at (13,8,9)
       No. of Lagrangian Particles:  3
 
       Time Step       30   November  7, 2025  10:18:46
       Step Size:  0.603E-01 s, Total Time:    2.67390 s
       Pressure Iterations: 1
       Maximum Velocity Error:  0.22E-01 on Mesh 1 at (15,8,12)
       Maximum Pressure Error:  0.14E+01 on Mesh 1 at (15,8,15)
       ---------------------------------------------------------------
       Max CFL number:  0.94E+00 at (15,8,15)
       Max divergence:  0.58E+00 at (16,8,7)
       Min divergence: -0.95E-01 at (15,8,15)
       Max VN number :  0.47E+00 at (15,8,14)
       No. of Lagrangian Particles:  3
 
       Time Step       40   November  7, 2025  10:18:46
       Step Size:  0.603E-01 s, Total Time:    3.27698 s
       Pressure Iterations: 1
       Maximum Velocity Error:  0.14E-01 on Mesh 1 at (16,8,12)
       Maximum Pressure Error:  0.94E+00 on Mesh 1 at (15,8,12)
       ---------------------------------------------------------------
       Max CFL number:  0.85E+00 at (15,8,16)
       Max divergence:  0.61E+00 at (16,8,7)
       Min divergence: -0.82E-01 at (15,8,19)
       Max VN number :  0.39E+00 at (15,8,19)
       No. of Lagrangian Particles:  3
 
       Time Step       50   November  7, 2025  10:18:46
       Step Size:  0.603E-01 s, Total Time:    3.88006 s
       Pressure Iterations: 1
       Maximum Velocity Error:  0.20E-01 on Mesh 1 at (14,8,12)
       Maximum Pressure Error:  0.11E+01 on Mesh 1 at (14,8,15)
       ---------------------------------------------------------------
       Max CFL number:  0.84E+00 at (15,8,20)
       Max divergence:  0.61E+00 at (14,8,7)
       Min divergence: -0.82E-01 at (15,8,16)
       Max VN number :  0.38E+00 at (15,8,23)
       No. of Lagrangian Particles:  3
 
       Time Step       60   November  7, 2025  10:18:47
       Step Size:  0.603E-01 s, Total Time:    4.48314 s
       Pressure Iterations: 1
       Maximum Velocity Error:  0.13E-01 on Mesh 1 at (16,8,12)
       Maximum Pressure Error:  0.86E+00 on Mesh 1 at (16,8,13)
       ---------------------------------------------------------------
       Max CFL number:  0.91E+00 at (16,8,24)
       Max divergence:  0.64E+00 at (14,8,7)
       Min divergence: -0.17E+00 at (15,8,13)
       Max VN number :  0.50E+00 at (16,9,24)
       No. of Lagrangian Particles:  3
 
       Time Step       70   November  7, 2025  10:18:47
       Step Size:  0.603E-01 s, Total Time:    5.08622 s
       Pressure Iterations: 1
       Maximum Velocity Error:  0.14E-01 on Mesh 1 at (16,8,12)
       Maximum Pressure Error:  0.11E+01 on Mesh 1 at (14,8,16)
       ---------------------------------------------------------------
       Max CFL number:  0.89E+00 at (16,8,19)
       Max divergence:  0.64E+00 at (14,8,7)
       Min divergence: -0.11E+00 at (15,8,13)
       Max VN number :  0.55E+00 at (18,9,24)
       No. of Lagrangian Particles:  3
 
       Time Step       80   November  7, 2025  10:18:48
       Step Size:  0.603E-01 s, Total Time:    5.68930 s
       Pressure Iterations: 1
       Maximum Velocity Error:  0.14E-01 on Mesh 1 at (14,8,12)
       Maximum Pressure Error:  0.10E+01 on Mesh 1 at (16,8,13)
       ---------------------------------------------------------------
       Max CFL number:  0.84E+00 at (16,8,15)
       Max divergence:  0.68E+00 at (15,8,7)
       Min divergence: -0.17E+00 at (15,8,13)
       Max VN number :  0.57E+00 at (21,9,24)
       No. of Lagrangian Particles:  3
 
       Time Step       90   November  7, 2025  10:18:48
       Step Size:  0.663E-01 s, Total Time:    6.32253 s
       Pressure Iterations: 1
       Maximum Velocity Error:  0.25E-01 on Mesh 1 at (16,8,12)
       Maximum Pressure Error:  0.20E+01 on Mesh 1 at (16,8,13)
       ---------------------------------------------------------------
       Max CFL number:  0.95E+00 at (14,8,15)
       Max divergence:  0.79E+00 at (15,8,7)
       Min divergence: -0.11E+00 at (16,8,13)
       Max VN number :  0.62E+00 at (8,10,23)
       No. of Lagrangian Particles:  3
 
       Time Step      100   November  7, 2025  10:18:48
       Step Size:  0.663E-01 s, Total Time:    6.98591 s
       Pressure Iterations: 1
       Maximum Velocity Error:  0.29E-01 on Mesh 1 at (14,8,12)
       Maximum Pressure Error:  0.34E+01 on Mesh 1 at (14,8,13)
       ---------------------------------------------------------------
       Max CFL number:  0.95E+00 at (16,8,17)
       Max divergence:  0.95E+00 at (15,8,7)
       Min divergence: -0.18E+00 at (15,8,12)
       Max VN number :  0.71E+00 at (5,10,23)
       No. of Lagrangian Particles:  3
 
       Time Step      200   November  7, 2025  10:18:52
       Step Size:  0.423E-01 s, Total Time:   11.81368 s
       Pressure Iterations: 1
       Maximum Velocity Error:  0.27E-01 on Mesh 1 at (16,8,12)
       Maximum Pressure Error:  0.60E+01 on Mesh 1 at (16,8,12)
       ---------------------------------------------------------------
       Max CFL number:  0.83E+00 at (16,8,22)
       Max divergence:  0.16E+01 at (15,8,7)
       Min divergence: -0.37E+00 at (15,8,13)
       Max VN number :  0.49E+00 at (15,10,23)
       No. of Lagrangian Particles:  3
 
       Time Step      300   November  7, 2025  10:18:55
       Step Size:  0.459E-01 s, Total Time:   16.11124 s
       Pressure Iterations: 1
       Maximum Velocity Error:  0.30E-01 on Mesh 1 at (16,8,12)
       Maximum Pressure Error:  0.65E+01 on Mesh 1 at (16,8,14)
       ---------------------------------------------------------------
       Max CFL number:  0.96E+00 at (16,8,13)
       Max divergence:  0.17E+01 at (15,8,7)
       Min divergence: -0.53E+00 at (16,8,13)
       Max VN number :  0.59E+00 at (4,10,21)
       No. of Lagrangian Particles:  3
 
       Time Step      400   November  7, 2025  10:18:58
       Step Size:  0.459E-01 s, Total Time:   20.69681 s
       Pressure Iterations: 1
       Maximum Velocity Error:  0.19E-01 on Mesh 1 at (16,8,11)
       Maximum Pressure Error:  0.53E+01 on Mesh 1 at (16,8,14)
       ---------------------------------------------------------------
       Max CFL number:  0.91E+00 at (16,8,13)
       Max divergence:  0.17E+01 at (15,8,7)
       Min divergence: -0.60E+00 at (16,8,13)
       Max VN number :  0.82E+00 at (11,10,22)
       No. of Lagrangian Particles:  3
 
       Time Step      500   November  7, 2025  10:19:02
       Step Size:  0.440E-01 s, Total Time:   24.97731 s
       Pressure Iterations: 1
       Maximum Velocity Error:  0.39E-01 on Mesh 1 at (16,8,12)
       Maximum Pressure Error:  0.10E+02 on Mesh 1 at (16,8,12)
       ---------------------------------------------------------------
       Max CFL number:  0.91E+00 at (14,8,14)
       Max divergence:  0.18E+01 at (15,8,7)
       Min divergence: -0.54E+00 at (16,8,13)
       Max VN number :  0.48E+00 at (10,10,21)
       No. of Lagrangian Particles:  3
 
       Time Step      600   November  7, 2025  10:19:05
       Step Size:  0.426E-01 s, Total Time:   29.25216 s
       Pressure Iterations: 1
       Maximum Velocity Error:  0.19E-01 on Mesh 1 at (14,8,11)
       Maximum Pressure Error:  0.55E+01 on Mesh 1 at (14,8,13)
       ---------------------------------------------------------------
       Max CFL number:  0.86E+00 at (16,8,16)
       Max divergence:  0.18E+01 at (15,8,7)
       Min divergence: -0.47E+00 at (15,8,13)
       Max VN number :  0.46E+00 at (9,10,21)
       No. of Lagrangian Particles:  3
 
       Time Step      700   November  7, 2025  10:19:09
       Step Size:  0.412E-01 s, Total Time:   33.39335 s
       Pressure Iterations: 1
       Maximum Velocity Error:  0.18E-01 on Mesh 1 at (16,8,12)
       Maximum Pressure Error:  0.44E+01 on Mesh 1 at (16,8,11)
       ---------------------------------------------------------------
       Max CFL number:  0.83E+00 at (15,8,15)
       Max divergence:  0.18E+01 at (15,8,7)
       Min divergence: -0.50E+00 at (15,8,14)
       Max VN number :  0.76E+00 at (10,10,21)
       No. of Lagrangian Particles:  3
 
       Time Step      800   November  7, 2025  10:19:12
       Step Size:  0.412E-01 s, Total Time:   37.51062 s
       Pressure Iterations: 1
       Maximum Velocity Error:  0.22E-01 on Mesh 1 at (14,8,12)
       Maximum Pressure Error:  0.37E+01 on Mesh 1 at (15,8,14)
       ---------------------------------------------------------------
       Max CFL number:  0.91E+00 at (16,8,17)
       Max divergence:  0.19E+01 at (15,8,7)
       Min divergence: -0.58E+00 at (15,8,13)
       Max VN number :  0.57E+00 at (7,10,20)
       No. of Lagrangian Particles:  3
 
       Time Step      900   November  7, 2025  10:19:16
       Step Size:  0.453E-01 s, Total Time:   41.88317 s
       Pressure Iterations: 1
       Maximum Velocity Error:  0.21E-01 on Mesh 1 at (14,8,11)
       Maximum Pressure Error:  0.49E+01 on Mesh 1 at (16,8,11)
       ---------------------------------------------------------------
       Max CFL number:  0.93E+00 at (15,8,15)
       Max divergence:  0.19E+01 at (15,8,7)
       Min divergence: -0.71E+00 at (15,8,13)
       Max VN number :  0.65E+00 at (23,10,23)
       No. of Lagrangian Particles:  3
 
       Time Step     1000   November  7, 2025  10:19:19
       Step Size:  0.402E-01 s, Total Time:   45.82016 s
       Pressure Iterations: 1
       Maximum Velocity Error:  0.14E-01 on Mesh 1 at (14,8,12)
       Maximum Pressure Error:  0.39E+01 on Mesh 1 at (16,8,24)
       ---------------------------------------------------------------
       Max CFL number:  0.85E+00 at (16,8,19)
       Max divergence:  0.20E+01 at (15,8,7)
       Min divergence: -0.58E+00 at (15,8,13)
       Max VN number :  0.65E+00 at (8,10,21)
       No. of Lagrangian Particles:  3
 
       Time Step     1100   November  7, 2025  10:19:23
       Step Size:  0.437E-01 s, Total Time:   49.87332 s
       Pressure Iterations: 1
       Maximum Velocity Error:  0.19E-01 on Mesh 1 at (16,8,11)
       Maximum Pressure Error:  0.61E+01 on Mesh 1 at (16,8,14)
       ---------------------------------------------------------------
       Max CFL number:  0.91E+00 at (15,8,17)
       Max divergence:  0.20E+01 at (15,8,7)
       Min divergence: -0.60E+00 at (16,8,13)
       Max VN number :  0.10E+01 at (11,10,22)
       No. of Lagrangian Particles:  3
 
       Time Step     1200   November  7, 2025  10:19:29
       Step Size:  0.405E-01 s, Total Time:   53.76756 s
       Pressure Iterations: 1
       Maximum Velocity Error:  0.22E-01 on Mesh 1 at (14,8,11)
       Maximum Pressure Error:  0.55E+01 on Mesh 1 at (16,8,18)
       ---------------------------------------------------------------
       Max CFL number:  0.84E+00 at (15,8,14)
       Max divergence:  0.22E+01 at (15,8,7)
       Min divergence: -0.61E+00 at (15,8,13)
       Max VN number :  0.83E+00 at (11,10,22)
       No. of Lagrangian Particles:  3
 
       Time Step     1300   November  7, 2025  10:19:35
       Step Size:  0.395E-01 s, Total Time:   57.90112 s
       Pressure Iterations: 1
       Maximum Velocity Error:  0.22E-01 on Mesh 1 at (14,8,12)
       Maximum Pressure Error:  0.74E+01 on Mesh 1 at (14,8,15)
       ---------------------------------------------------------------
       Max CFL number:  0.84E+00 at (14,8,14)
       Max divergence:  0.24E+01 at (15,8,7)
       Min divergence: -0.57E+00 at (15,8,13)
       Max VN number :  0.87E+00 at (6,10,23)
       No. of Lagrangian Particles:  3
 
       Time Step     1400   November  7, 2025  10:19:40
       Step Size:  0.283E-01 s, Total Time:   61.60489 s
       Pressure Iterations: 1
       Maximum Velocity Error:  0.35E-01 on Mesh 1 at (15,8,12)
       Maximum Pressure Error:  0.26E+02 on Mesh 1 at (15,8,12)
       ---------------------------------------------------------------
       Max CFL number:  0.89E+00 at (15,8,13)
       Max divergence:  0.30E+01 at (15,8,7)
       Min divergence: -0.16E+01 at (15,8,14)
       Max VN number :  0.44E+00 at (11,10,22)
       No. of Lagrangian Particles:  3
       No. of CLIP DT restrictions:  1
 
       Time Step     1500   November  7, 2025  10:19:43
       Step Size:  0.333E-01 s, Total Time:   65.00859 s
       Pressure Iterations: 1
       Maximum Velocity Error:  0.25E-01 on Mesh 1 at (14,8,12)
       Maximum Pressure Error:  0.10E+02 on Mesh 1 at (15,8,14)
       ---------------------------------------------------------------
       Max CFL number:  0.91E+00 at (16,8,17)
       Max divergence:  0.32E+01 at (15,8,7)
       Min divergence: -0.10E+01 at (15,8,13)
       Max VN number :  0.37E+00 at (8,10,22)
       No. of Lagrangian Particles:  3
 
       Time Step     1600   November  7, 2025  10:19:46
       Step Size:  0.285E-01 s, Total Time:   68.27587 s
       Pressure Iterations: 1
       Maximum Velocity Error:  0.29E-01 on Mesh 1 at (15,8,12)
       Maximum Pressure Error:  0.26E+02 on Mesh 1 at (15,8,12)
       ---------------------------------------------------------------
       Max CFL number:  0.84E+00 at (16,8,17)
       Max divergence:  0.36E+01 at (15,8,7)
       Min divergence: -0.12E+01 at (15,8,13)
       Max VN number :  0.52E+00 at (12,10,22)
       No. of Lagrangian Particles:  3
 
       Time Step     1700   November  7, 2025  10:19:48
       Step Size:  0.284E-01 s, Total Time:   71.03902 s
       Pressure Iterations: 1
       Maximum Velocity Error:  0.42E-01 on Mesh 1 at (15,8,11)
       Maximum Pressure Error:  0.51E+02 on Mesh 1 at (15,8,13)
       ---------------------------------------------------------------
       Max CFL number:  0.98E+00 at (15,8,13)
       Max divergence:  0.36E+01 at (15,8,7)
       Min divergence: -0.12E+01 at (15,8,13)
       Max VN number :  0.60E+00 at (12,10,21)
       No. of Lagrangian Particles:  3
 
       Time Step     1800   November  7, 2025  10:19:51
       Step Size:  0.297E-01 s, Total Time:   73.74345 s
       Pressure Iterations: 1
       Maximum Velocity Error:  0.28E-01 on Mesh 1 at (16,8,12)
       Maximum Pressure Error:  0.17E+02 on Mesh 1 at (16,8,12)
       ---------------------------------------------------------------
       Max CFL number:  0.87E+00 at (15,8,17)
       Max divergence:  0.39E+01 at (16,8,7)
       Min divergence: -0.91E+00 at (16,8,14)
       Max VN number :  0.70E+00 at (20,10,21)
       No. of Lagrangian Particles:  3
 
       Time Step     1900   November  7, 2025  10:19:53
       Step Size:  0.293E-01 s, Total Time:   76.36954 s
       Pressure Iterations: 1
       Maximum Velocity Error:  0.17E-01 on Mesh 1 at (16,8,11)
       Maximum Pressure Error:  0.23E+02 on Mesh 1 at (16,8,14)
       ---------------------------------------------------------------
       Max CFL number:  0.89E+00 at (16,8,14)
       Max divergence:  0.38E+01 at (14,8,7)
       Min divergence: -0.14E+01 at (16,8,13)
       Max VN number :  0.54E+00 at (7,10,21)
       No. of Lagrangian Particles:  3
 
       Time Step     2000   November  7, 2025  10:19:56
       Step Size:  0.265E-01 s, Total Time:   79.06479 s
       Pressure Iterations: 1
       Maximum Velocity Error:  0.29E-01 on Mesh 1 at (15,8,12)
       Maximum Pressure Error:  0.22E+02 on Mesh 1 at (15,8,13)
       ---------------------------------------------------------------
       Max CFL number:  0.89E+00 at (16,8,21)
       Max divergence:  0.38E+01 at (15,8,7)
       Min divergence: -0.98E+00 at (15,8,14)
       Max VN number :  0.65E+00 at (7,10,21)
       No. of Lagrangian Particles:  3
 
       Time Step     2100   November  7, 2025  10:19:58
       Step Size:  0.263E-01 s, Total Time:   81.70917 s
       Pressure Iterations: 1
       Maximum Velocity Error:  0.16E-01 on Mesh 1 at (15,8,11)
       Maximum Pressure Error:  0.17E+02 on Mesh 1 at (14,8,16)
       ---------------------------------------------------------------
       Max CFL number:  0.81E+00 at (14,8,16)
       Max divergence:  0.37E+01 at (14,8,7)
       Min divergence: -0.13E+01 at (15,8,13)
       Max VN number :  0.75E+00 at (15,10,23)
       No. of Lagrangian Particles:  3
 
       Time Step     2200   November  7, 2025  10:20:01
       Step Size:  0.221E-01 s, Total Time:   84.38884 s
       Pressure Iterations: 1
       Maximum Velocity Error:  0.41E-01 on Mesh 1 at (17,8,12)
       Maximum Pressure Error:  0.67E+02 on Mesh 1 at (15,8,9)
       ---------------------------------------------------------------
       Max CFL number:  0.88E+00 at (16,8,24)
       Max divergence:  0.56E+01 at (15,8,7)
       Min divergence: -0.68E+00 at (16,8,13)
       Max VN number :  0.61E+00 at (11,10,22)
       No. of Lagrangian Particles:  3
 
       Time Step     2300   November  7, 2025  10:20:03
       Step Size:  0.279E-01 s, Total Time:   87.20916 s
       Pressure Iterations: 1
       Maximum Velocity Error:  0.20E-01 on Mesh 1 at (14,8,12)
       Maximum Pressure Error:  0.14E+02 on Mesh 1 at (15,8,14)
       ---------------------------------------------------------------
       Max CFL number:  0.94E+00 at (15,8,13)
       Max divergence:  0.40E+01 at (14,8,7)
       Min divergence: -0.17E+01 at (15,8,13)
       Max VN number :  0.64E+00 at (10,10,23)
       No. of Lagrangian Particles:  3
 
       Time Step     2400   November  7, 2025  10:20:06
       Step Size:  0.259E-01 s, Total Time:   89.78841 s
       Pressure Iterations: 1
       Maximum Velocity Error:  0.28E-01 on Mesh 1 at (15,8,12)
       Maximum Pressure Error:  0.25E+02 on Mesh 1 at (15,8,12)
       ---------------------------------------------------------------
       Max CFL number:  0.83E+00 at (16,8,15)
       Max divergence:  0.41E+01 at (16,8,7)
       Min divergence: -0.12E+01 at (15,8,13)
       Max VN number :  0.75E+00 at (10,10,22)
       No. of Lagrangian Particles:  3
 
       Time Step     2500   November  7, 2025  10:20:08
       Step Size:  0.308E-01 s, Total Time:   92.55248 s
       Pressure Iterations: 1
       Maximum Velocity Error:  0.47E-01 on Mesh 1 at (15,8,12)
       Maximum Pressure Error:  0.27E+02 on Mesh 1 at (14,8,14)
       ---------------------------------------------------------------
       Max CFL number:  0.97E+00 at (14,8,20)
       Max divergence:  0.37E+01 at (15,8,7)
       Min divergence: -0.15E+01 at (14,8,14)
       Max VN number :  0.60E+00 at (14,10,23)
       No. of Lagrangian Particles:  3
 
       Time Step     2600   November  7, 2025  10:20:11
       Step Size:  0.296E-01 s, Total Time:   95.33199 s
       Pressure Iterations: 1
       Maximum Velocity Error:  0.15E-01 on Mesh 1 at (16,8,12)
       Maximum Pressure Error:  0.15E+02 on Mesh 1 at (8,10,24)
       ---------------------------------------------------------------
       Max CFL number:  0.86E+00 at (14,9,21)
       Max divergence:  0.38E+01 at (14,8,7)
       Min divergence: -0.11E+01 at (14,8,13)
       Max VN number :  0.77E+00 at (12,10,22)
       No. of Lagrangian Particles:  3
 
       Time Step     2700   November  7, 2025  10:20:15
       Step Size:  0.240E-01 s, Total Time:   98.26122 s
       Pressure Iterations: 1
       Maximum Velocity Error:  0.14E-01 on Mesh 1 at (15,8,12)
       Maximum Pressure Error:  0.45E+02 on Mesh 1 at (17,8,17)
       ---------------------------------------------------------------
       Max CFL number:  0.88E+00 at (17,8,16)
       Max divergence:  0.43E+01 at (16,8,7)
       Min divergence: -0.11E+01 at (15,8,13)
       Max VN number :  0.77E+00 at (11,10,23)
       No. of Lagrangian Particles:  3
 
       Time Step     2800   November  7, 2025  10:20:20
       Step Size:  0.263E-01 s, Total Time:  100.63439 s
       Pressure Iterations: 1
       Maximum Velocity Error:  0.26E-01 on Mesh 1 at (14,8,11)
       Maximum Pressure Error:  0.24E+02 on Mesh 1 at (14,8,10)
       ---------------------------------------------------------------
       Max CFL number:  0.93E+00 at (17,8,21)
       Max divergence:  0.39E+01 at (16,8,7)
       Min divergence: -0.11E+01 at (16,8,14)
       Max VN number :  0.83E+00 at (19,10,22)
       No. of Lagrangian Particles:  3
 
       Time Step     2900   November  7, 2025  10:20:25
       Step Size:  0.240E-01 s, Total Time:  103.34390 s
       Pressure Iterations: 1
       Maximum Velocity Error:  0.32E-01 on Mesh 1 at (14,8,12)
       Maximum Pressure Error:  0.36E+02 on Mesh 1 at (14,8,12)
       ---------------------------------------------------------------
       Max CFL number:  0.89E+00 at (14,8,19)
       Max divergence:  0.40E+01 at (15,8,7)
       Min divergence: -0.86E+00 at (15,8,13)
       Max VN number :  0.56E+00 at (11,10,21)
       No. of Lagrangian Particles:  3
 
       Time Step     3000   November  7, 2025  10:20:30
       Step Size:  0.223E-01 s, Total Time:  105.82252 s
       Pressure Iterations: 1
       Maximum Velocity Error:  0.33E-01 on Mesh 1 at (16,8,12)
       Maximum Pressure Error:  0.28E+02 on Mesh 1 at (14,8,12)
       ---------------------------------------------------------------
       Max CFL number:  0.87E+00 at (14,8,18)
       Max divergence:  0.44E+01 at (15,8,7)
       Min divergence: -0.95E+00 at (16,8,16)
       Max VN number :  0.46E+00 at (17,10,23)
       No. of Lagrangian Particles:  3
 
       Time Step     3100   November  7, 2025  10:20:36
       Step Size:  0.297E-01 s, Total Time:  108.52740 s
       Pressure Iterations: 1
       Maximum Velocity Error:  0.15E-01 on Mesh 1 at (16,8,12)
       Maximum Pressure Error:  0.19E+02 on Mesh 1 at (9,10,24)
       ---------------------------------------------------------------
       Max CFL number:  0.84E+00 at (14,8,13)
       Max divergence:  0.38E+01 at (15,8,7)
       Min divergence: -0.11E+01 at (14,8,13)
       Max VN number :  0.81E+00 at (9,10,21)
       No. of Lagrangian Particles:  3
 
       Time Step     3200   November  7, 2025  10:20:41
       Step Size:  0.219E-01 s, Total Time:  111.19302 s
       Pressure Iterations: 1
       Maximum Velocity Error:  0.19E-01 on Mesh 1 at (15,8,12)
       Maximum Pressure Error:  0.14E+02 on Mesh 1 at (15,8,12)
       ---------------------------------------------------------------
       Max CFL number:  0.79E+00 at (16,8,24)
       Max divergence:  0.41E+01 at (15,8,7)
       Min divergence: -0.12E+01 at (16,8,13)
       Max VN number :  0.93E+00 at (8,10,21)
       No. of Lagrangian Particles:  3
 
       Time Step     3300   November  7, 2025  10:20:46
       Step Size:  0.247E-01 s, Total Time:  113.64280 s
       Pressure Iterations: 1
       Maximum Velocity Error:  0.48E-01 on Mesh 1 at (15,8,12)
       Maximum Pressure Error:  0.32E+02 on Mesh 1 at (14,8,12)
       ---------------------------------------------------------------
       Max CFL number:  0.85E+00 at (15,8,15)
       Max divergence:  0.39E+01 at (15,8,7)
       Min divergence: -0.11E+01 at (15,8,14)
       Max VN number :  0.42E+00 at (17,10,22)
       No. of Lagrangian Particles:  3
 
       Time Step     3400   November  7, 2025  10:20:52
       Step Size:  0.289E-01 s, Total Time:  116.58795 s
       Pressure Iterations: 1
       Maximum Velocity Error:  0.99E-02 on Mesh 1 at (14,8,10)
       Maximum Pressure Error:  0.13E+02 on Mesh 1 at (14,8,24)
       ---------------------------------------------------------------
       Max CFL number:  0.87E+00 at (14,8,14)
       Max divergence:  0.40E+01 at (14,8,7)
       Min divergence: -0.11E+01 at (14,8,14)
       Max VN number :  0.61E+00 at (23,10,21)
       No. of Lagrangian Particles:  3
 
       Time Step     3500   November  7, 2025  10:20:57
       Step Size:  0.208E-01 s, Total Time:  119.04600 s
       Pressure Iterations: 1
       Maximum Velocity Error:  0.12E-01 on Mesh 1 at (14,8,10)
       Maximum Pressure Error:  0.58E+02 on Mesh 1 at (14,8,17)
       ---------------------------------------------------------------
       Max CFL number:  0.89E+00 at (14,8,15)
       Max divergence:  0.43E+01 at (14,8,7)
       Min divergence: -0.13E+01 at (14,8,17)
       Max VN number :  0.50E+00 at (20,10,22)
       No. of Lagrangian Particles:  3
 
       Time Step     3544   November  7, 2025  10:21:00
       Step Size:  0.159E-02 s, Total Time:  120.00000 s
       Pressure Iterations: 1
       Maximum Velocity Error:  0.98E-02 on Mesh 1 at (15,8,6)
       Maximum Pressure Error:  0.46E+03 on Mesh 1 at (14,8,7)
       ---------------------------------------------------------------
       Max CFL number:  0.51E-01 at (16,8,16)
       Max divergence:  0.39E+01 at (14,8,7)
       Min divergence: -0.70E+00 at (16,8,17)
       Max VN number :  0.45E-01 at (21,10,21)
       No. of Lagrangian Particles:  3
 


 Time Stepping Wall Clock Time (s):      135.246
 Total Elapsed Wall Clock Time (s):      137.075

STOP: FDS completed successfully (CHID: case001)
