
 Fire Dynamics Simulator

 Current Date     : July  7, 2023  08:37:17
 Revision         : FDS-6.8.0-351-ge786c46-nightly
 Revision Date    : Fri Jun 30 14:59:51 2023 -0400
 Compiler         : Intel ifort 2021.9.0
 Compilation Date : Tue 07/04/2023  08:31 AM

 MPI Enabled;    Number of MPI Processes:       4
 OpenMP Disabled

 MPI version: 3.1
 MPI library version: Intel(R) MPI Library 2021.9 for Windows* OS


 Job TITLE        : Particles
 Job ID string    : case002


 Grid Dimensions, Mesh     1

   Cells in the X Direction            25
   Cells in the Y Direction            25
   Cells in the Z Direction            15
   Number of Grid Cells              9375


 Physical Dimensions, Mesh     1

   Length (m)                      15.000
   Width  (m)                      15.000
   Height (m)                       9.000
   Initial Time Step (s)            0.319

 Grid Dimensions, Mesh     2

   Cells in the X Direction            25
   Cells in the Y Direction            25
   Cells in the Z Direction            15
   Number of Grid Cells              9375


 Physical Dimensions, Mesh     2

   Length (m)                      15.000
   Width  (m)                      15.000
   Height (m)                       9.000
   Initial Time Step (s)            0.319

 Grid Dimensions, Mesh     3

   Cells in the X Direction            25
   Cells in the Y Direction            25
   Cells in the Z Direction            15
   Number of Grid Cells              9375


 Physical Dimensions, Mesh     3

   Length (m)                      15.000
   Width  (m)                      15.000
   Height (m)                       9.000
   Initial Time Step (s)            0.319

 Grid Dimensions, Mesh     4

   Cells in the X Direction            25
   Cells in the Y Direction            25
   Cells in the Z Direction            15
   Number of Grid Cells              9375


 Physical Dimensions, Mesh     4

   Length (m)                      15.000
   Width  (m)                      15.000
   Height (m)                       9.000
   Initial Time Step (s)            0.319

 Total Number of Grid Cells         37500


 Maximum Cell Aspect Ratio          1.000
 CFL Velocity Norm                      2


 Miscellaneous Parameters

   Simulation Start Time (s)          0.0
   Simulation End Time (s)           60.0
   Background Pressure (Pa)     101325.00
   Ambient Temperature (C)          20.00

   3D Cartesian
   VLES Calculation
   Eddy Viscosity Model:  Deardorff (C_DEARDORFF = 0.10)
   Surface INERT Eddy Viscosity Model:  WALE (C_WALE = 0.60)
   Surface ceramic board Eddy Viscosity Model:  WALE (C_WALE = 0.60)
   Surface OCCUPANT Eddy Viscosity Model:  WALE (C_WALE = 0.60)
   Surface FLOOR Eddy Viscosity Model:  WALE (C_WALE = 0.60)
   Surface SHEET METAL Eddy Viscosity Model:  WALE (C_WALE = 0.60)
   Surface CEILING TILE Eddy Viscosity Model:  WALE (C_WALE = 0.60)
   Surface PLASTIC A Eddy Viscosity Model:  WALE (C_WALE = 0.60)
   Surface PALLET Eddy Viscosity Model:  WALE (C_WALE = 0.60)
   Surface IGNITOR Eddy Viscosity Model:  WALE (C_WALE = 0.60)
   Turbulent Prandtl Number:         0.50
   Turbulent Schmidt Number:         0.50


 Pressure solver information

   Solver:                          ULMAT
   Velocity tolerance (m/s):    3.000E-01
   Press eqn res tol (1/s^2):   5.556E+01
   Max pressure iterations:            10


 Background Stratification

      Z (m)     P_0 (Pa)    TMP_0 (C)
   ------------------------------------
        8.70    101223.06     20.00
        8.10    101230.08     20.00
        7.50    101237.10     20.00
        6.90    101244.14     20.00
        6.30    101251.16     20.00
        5.70    101258.18     20.00
        5.10    101265.22     20.00
        4.50    101272.25     20.00
        3.90    101279.27     20.00
        3.30    101286.31     20.00
        2.70    101293.34     20.00
        2.10    101300.36     20.00
        1.50    101307.41     20.00
        0.90    101314.43     20.00
        0.30    101321.46     20.00


 Mass Fraction Transformation Matrix to Convert Species Mixtures (Columns) to Primitive Species (Rows)

                         AIR       POLYSTYR  PRODUCTS  WATER VA
   NITROGEN              0.762470  0.000000  0.700282  0.000000
   OXYGEN                0.230997  0.000000  0.000000  0.000000
   CARBON DIOXIDE        0.000591  0.000000  0.219559  0.000000
   CARBON MONOXIDE       0.000000  0.000000  0.004894  0.000000
   SOOT                  0.000000  0.000000  0.013376  0.000000
   HYDROGEN              0.000000  0.000000  0.000000  0.000000
   HYDROGEN CYANIDE      0.000000  0.000000  0.000000  0.000000
   WATER VAPOR           0.005941  0.000000  0.061889  1.000000
   POLYSTYRENE           0.000000  1.000000  0.000000  0.000000


 Primitive Species Information

   NITROGEN
   Gas Species
   Molecular Weight (g/mol)                28.01340
   Ambient Density (kg/m^3)                1.165
           Enthalpy of Formation (J/kg)  0.000E+00

   OXYGEN
   Gas Species
   Molecular Weight (g/mol)                31.99880
   Ambient Density (kg/m^3)                1.330
           Enthalpy of Formation (J/kg)  0.000E+00

   CARBON DIOXIDE
   Gas Species
   Molecular Weight (g/mol)                44.00950
   Ambient Density (kg/m^3)                1.830
           Enthalpy of Formation (J/kg) -8.941E+06

   CARBON MONOXIDE
   Gas Species
   Molecular Weight (g/mol)                28.01010
   Ambient Density (kg/m^3)                1.164
           Enthalpy of Formation (J/kg) -3.946E+06

   SOOT
   Gas Species
   Molecular Weight (g/mol)                12.01070
   Ambient Density (kg/m^3)                0.499
           Enthalpy of Formation (J/kg)  0.000E+00

   HYDROGEN
   Gas Species
   Molecular Weight (g/mol)                 2.01588
   Ambient Density (kg/m^3)                0.084
           Enthalpy of Formation (J/kg)  0.000E+00

   HYDROGEN CYANIDE
   Gas Species
   Molecular Weight (g/mol)                27.02534
   Ambient Density (kg/m^3)                1.123
           Enthalpy of Formation (J/kg)  4.924E+06

   WATER VAPOR
   Gas Species
   Molecular Weight (g/mol)                18.01528
   Ambient Density (kg/m^3)                0.749
           Enthalpy of Formation (J/kg) -1.342E+07

   POLYSTYRENE
   Gas Species
   Molecular Weight (g/mol)               104.14912
   Ambient Density (kg/m^3)                4.330
   Assumed Enthalpy of Formation (J/kg)  6.465E+06


 Tracked (Lumped) Species Information

   AIR
   Molecular Weight (g/mol)            28.75198
   Ambient Density (kg/m^3)            1.195
   Initial Mass Fraction               1.000
   Enthalpy of Formation (J/kg)     -8.504E+04

   Sub Species                    Mass Fraction     Mole Fraction
   NITROGEN                       7.624699E-01      7.825727E-01
   OXYGEN                         2.309974E-01      2.075588E-01
   CARBON DIOXIDE                 5.914650E-04      3.864118E-04
   WATER VAPOR                    5.941209E-03      9.482037E-03
 
     Viscosity (kg/m/s) Ambient,  293 K:  1.796E-05
                                  500 K:  2.612E-05
                                 1000 K:  4.125E-05
                                 1500 K:  5.371E-05
                                 2000 K:  6.476E-05
   Therm. Cond. (W/m/K) Ambient,  293 K:  2.556E-02
                                  500 K:  3.814E-02
                                 1000 K:  6.686E-02
                                 1500 K:  9.249E-02
                                 2000 K:  1.153E-01
        Enthalpy (J/kg) Ambient,  293 K: -9.012E+04
                                  500 K:  1.222E+05
                                 1000 K:  6.721E+05
                                 1500 K:  1.270E+06
                                 2000 K:  1.896E+06
    Spec. Heat (J/kg/K) Ambient,  293 K:  1.016E+03
                                  500 K:  1.042E+03
                                 1000 K:  1.156E+03
                                 1500 K:  1.229E+03
                                 2000 K:  1.270E+03
   Diff. Coeff. (m^2/s) Ambient,  293 K:  1.991E-05
                                  500 K:  4.961E-05
                                 1000 K:  1.580E-04
                                 1500 K:  3.095E-04
                                 2000 K:  4.984E-04
 Gibbs Energy Amb. (kJ/mol),  293 K: -5.873E+01
                                  500 K: -1.007E+02
                                 1000 K: -2.117E+02
                                 1500 K: -3.312E+02
                                 2000 K: -4.568E+02

   POLYSTYRENE
   Molecular Weight (g/mol)           104.14912
   Ambient Density (kg/m^3)            4.330
   Initial Mass Fraction               0.000
   Enthalpy of Formation (J/kg)      6.465E+06

   Sub Species                    Mass Fraction     Mole Fraction
   POLYSTYRENE                    1.000000E+00      1.000000E+00
 
     Viscosity (kg/m/s) Ambient,  293 K:  3.355E-05
                                  500 K:  4.843E-05
                                 1000 K:  7.613E-05
                                 1500 K:  9.904E-05
                                 2000 K:  1.194E-04
   Therm. Cond. (W/m/K) Ambient,  293 K:  1.320E-02
                                  500 K:  1.906E-02
                                 1000 K:  2.996E-02
                                 1500 K:  3.898E-02
                                 2000 K:  4.697E-02
        Enthalpy (J/kg) Ambient,  293 K:  6.464E+06
                                  500 K:  6.521E+06
                                 1000 K:  6.661E+06
                                 1500 K:  6.801E+06
                                 2000 K:  6.941E+06
    Spec. Heat (J/kg/K) Ambient,  293 K:  2.794E+02
                                  500 K:  2.794E+02
                                 1000 K:  2.794E+02
                                 1500 K:  2.794E+02
                                 2000 K:  2.794E+02
   Diff. Coeff. (m^2/s) Ambient,  293 K:  1.582E-05
                                  500 K:  3.930E-05
                                 1000 K:  1.249E-04
                                 1500 K:  2.446E-04
                                 2000 K:  3.938E-04

   PRODUCTS
   Molecular Weight (g/mol)            28.80951
   Ambient Density (kg/m^3)            1.198
   Initial Mass Fraction               0.000
   Enthalpy of Formation (J/kg)     -2.813E+06

   Sub Species                    Mass Fraction     Mole Fraction
   NITROGEN                       7.002820E-01      7.201832E-01
   CARBON DIOXIDE                 2.195592E-01      1.437279E-01
   CARBON MONOXIDE                4.893666E-03      5.033331E-03
   SOOT                           1.337602E-02      3.208444E-02
   HYDROGEN CYANIDE               0.000000E+00      0.000000E+00
   WATER VAPOR                    6.188904E-02      9.897113E-02
 
     Viscosity (kg/m/s) Ambient,  293 K:  1.627E-05
                                  500 K:  2.406E-05
                                 1000 K:  3.885E-05
                                 1500 K:  5.106E-05
                                 2000 K:  6.182E-05
   Therm. Cond. (W/m/K) Ambient,  293 K:  2.312E-02
                                  500 K:  3.594E-02
                                 1000 K:  6.619E-02
                                 1500 K:  9.393E-02
                                 2000 K:  1.185E-01
        Enthalpy (J/kg) Ambient,  293 K: -2.818E+06
                                  500 K: -2.597E+06
                                 1000 K: -2.004E+06
                                 1500 K: -1.347E+06
                                 2000 K: -6.534E+05
    Spec. Heat (J/kg/K) Ambient,  293 K:  1.042E+03
                                  500 K:  1.105E+03
                                 1000 K:  1.260E+03
                                 1500 K:  1.358E+03
                                 2000 K:  1.412E+03
   Diff. Coeff. (m^2/s) Ambient,  293 K:  1.948E-05
                                  500 K:  4.913E-05
                                 1000 K:  1.579E-04
                                 1500 K:  3.100E-04
                                 2000 K:  4.997E-04
 Gibbs Energy Amb. (kJ/mol),  293 K: -1.587E+02
                                  500 K: -2.006E+02
                                 1000 K: -3.125E+02
                                 1500 K: -4.341E+02
                                 2000 K: -5.625E+02

   WATER VAPOR
   Molecular Weight (g/mol)            18.01528
   Ambient Density (kg/m^3)            0.749
   Initial Mass Fraction               0.000
   Enthalpy of Formation (J/kg)     -1.342E+07

   Sub Species                    Mass Fraction     Mole Fraction
   WATER VAPOR                    1.000000E+00      1.000000E+00
 
     Viscosity (kg/m/s) Ambient,  293 K:  1.052E-05
                                  500 K:  1.770E-05
                                 1000 K:  3.583E-05
                                 1500 K:  5.206E-05
                                 2000 K:  6.615E-05
   Therm. Cond. (W/m/K) Ambient,  293 K:  1.961E-02
                                  500 K:  3.460E-02
                                 1000 K:  8.212E-02
                                 1500 K:  1.367E-01
                                 2000 K:  1.900E-01
        Enthalpy (J/kg) Ambient,  293 K: -1.343E+07
                                  500 K: -1.304E+07
                                 1000 K: -1.198E+07
                                 1500 K: -1.075E+07
                                 2000 K: -9.369E+06
    Spec. Heat (J/kg/K) Ambient,  293 K:  1.863E+03
                                  500 K:  1.955E+03
                                 1000 K:  2.292E+03
                                 1500 K:  2.627E+03
                                 2000 K:  2.873E+03
   Diff. Coeff. (m^2/s) Ambient,  293 K:  2.095E-05
                                  500 K:  5.775E-05
                                 1000 K:  1.976E-04
                                 1500 K:  3.947E-04
                                 2000 K:  6.404E-04
 Gibbs Energy Amb. (kJ/mol),  293 K: -2.972E+02
                                  500 K: -3.382E+02
                                 1000 K: -4.486E+02
                                 1500 K: -5.696E+02
                                 2000 K: -6.986E+02
 
   Liq. Enthalpy (J/kg)     Melt  273 K: -1.598E+07
                                  323 K: -1.577E+07
                            Boil  373 K: -1.556E+07
 
   Liq. Spec. Heat (J/kg/K) Melt  273 K:  4.228E+03
                                  323 K:  4.181E+03
                            Boil  373 K:  4.217E+03
 
   Heat of Vapor. (J/kg)    Melt  273 K:  2.501E+06
                                  323 K:  2.385E+06
                            Boil  373 K:  2.269E+06


 Gas Phase Reaction Information

      Fuel                                           Heat of Combustion (kJ/kg)
      POLYSTYRENE                                                    40000.0000

      Primitive Species Stoich. Coeff.
      Species ID                                                          Molar
      NITROGEN                                                         0.000000
      OXYGEN                                                          -8.466349
      CARBON DIOXIDE                                                   6.354801
      CARBON MONOXIDE                                                  0.223096
      SOOT                                                             1.422103
      WATER VAPOR                                                      4.000000
      POLYSTYRENE                                                     -1.000000

      Tracked (Lumped) Species Stoich. Coeff.
      Species ID                                             Molar         Mass
      AIR                                               -40.790117   -11.260746
      POLYSTYRENE                                        -1.000000    -1.000000
      PRODUCTS                                           44.323768    12.260746

      Reaction Kinetics

      Fast chemistry

      ODE Solver:  EXPLICIT EULER

      Extinction Model:  EXTINCTION 1
      Auto-Ignition Temperature (C):            -273.1
      Critical Flame Temperature (C):           1427.0

      Prescribed Radiative Fraction:             0.500


 Material Information

   1 ceramic
     Emissivity:                                  0.900
     Density (kg/m3):                             272.0
     Specific Heat (kJ/kg/K) Ambient,  293 K:  1.000E+00
                                       350 K:  1.000E+00
                                       500 K:  1.000E+00
                                       800 K:  1.000E+00
     Therm. Cond. (W/m/K) Ambient,     293 K:  1.500E-01
                                       350 K:  1.500E-01
                                       500 K:  1.500E-01
                                       800 K:  1.500E-01
     Enthalpy (kJ/kg) Ambient,         293 K:  2.930E+02
                                       350 K:  3.500E+02
                                       500 K:  5.000E+02
                                       800 K:  8.000E+02

   2 CONCRETE
     Quintiere, Fire Behavior
     Emissivity:                                  0.900
     Density (kg/m3):                            2100.0
     Specific Heat (kJ/kg/K) Ambient,  293 K:  8.800E-01
                                       350 K:  8.800E-01
                                       500 K:  8.800E-01
                                       800 K:  8.800E-01
     Therm. Cond. (W/m/K) Ambient,     293 K:  1.000E+00
                                       350 K:  1.000E+00
                                       500 K:  1.000E+00
                                       800 K:  1.000E+00
     Enthalpy (kJ/kg) Ambient,         293 K:  2.578E+02
                                       350 K:  3.080E+02
                                       500 K:  4.400E+02
                                       800 K:  7.040E+02

   3 STEEL
     Quintiere, Fire Behavior
     Emissivity:                                  0.800
     Density (kg/m3):                            7850.0
     Specific Heat (kJ/kg/K) Ambient,  293 K:  4.600E-01
                                       350 K:  4.600E-01
                                       500 K:  4.600E-01
                                       800 K:  4.600E-01
     Therm. Cond. (W/m/K) Ambient,     293 K:  4.580E+01
                                       350 K:  4.580E+01
                                       500 K:  4.580E+01
                                       800 K:  4.580E+01
     Enthalpy (kJ/kg) Ambient,         293 K:  1.348E+02
                                       350 K:  1.610E+02
                                       500 K:  2.300E+02
                                       800 K:  3.680E+02

   4 TILE MATERIAL
     UL Report NC987-96NK37863
     Emissivity:                                  0.900
     Density (kg/m3):                             313.0
     Specific Heat (kJ/kg/K) Ambient,  293 K:  7.530E-01
                                       350 K:  7.530E-01
                                       500 K:  7.530E-01
                                       800 K:  7.530E-01
     Therm. Cond. (W/m/K) Ambient,     293 K:  6.110E-02
                                       350 K:  6.110E-02
                                       500 K:  6.110E-02
                                       800 K:  6.110E-02
     Enthalpy (kJ/kg) Ambient,         293 K:  2.206E+02
                                       350 K:  2.636E+02
                                       500 K:  3.765E+02
                                       800 K:  6.024E+02

   5 YELLOW PINE
     Drysdale, Intro to Fire Dynamics
     Emissivity:                                  0.900
     Density (kg/m3):                             640.0
     Specific Heat (kJ/kg/K) Ambient,  293 K:  2.850E+00
                                       350 K:  2.850E+00
                                       500 K:  2.850E+00
                                       800 K:  2.850E+00
     Therm. Cond. (W/m/K) Ambient,     293 K:  1.400E-01
                                       350 K:  1.400E-01
                                       500 K:  1.400E-01
                                       800 K:  1.400E-01
     Enthalpy (kJ/kg) Ambient,         293 K:  8.351E+02
                                       350 K:  9.975E+02
                                       500 K:  1.425E+03
                                       800 K:  2.280E+03

   6 CORRUGATED PAPER
     Emissivity:                                  0.900
     Density (kg/m3):                             200.0
     Specific Heat (kJ/kg/K) Ambient,  293 K:  1.500E+00
                                       350 K:  1.500E+00
                                       500 K:  1.500E+00
                                       800 K:  1.500E+00
     Therm. Cond. (W/m/K) Ambient,     293 K:  1.000E-01
                                       350 K:  1.000E-01
                                       500 K:  1.000E-01
                                       800 K:  1.000E-01
     Enthalpy (kJ/kg) Ambient,         293 K:  4.395E+02
                                       350 K:  5.250E+02
                                       500 K:  7.500E+02
                                       800 K:  1.200E+03


 Surface Conditions

   0 INERT (DEFAULT)

   1 ceramic board
     Material List
          1  ceramic
     Layer  1
        Thickness   (m):  0.00500
        Density (kg/m3):   272.00
        ceramic, Mass fraction:    1.00
     Reaction products considered from the first  0.50 layers.
     Total surface density     1.360 kg/m2
     Solid Phase Node, Layer, Coordinates(m):
                    0      1       0.0000000
                    1      1       0.0005000
                    2      1       0.0015000
                    3      1       0.0035000
                    4      1       0.0045000
                    5      1       0.0050000
     Exposed Backing

   2 OCCUPANT

   3 FLOOR
     Material List
          1  CONCRETE
     Layer  1
        Thickness   (m):  0.10000
        Density (kg/m3):  2100.00
        CONCRETE, Mass fraction:    1.00
     Reaction products considered from the first  0.50 layers.
     Total surface density   210.000 kg/m2
     Solid Phase Node, Layer, Coordinates(m):
                    0      1       0.0000000
                    1      1       0.0005263
                    2      1       0.0015789
                    3      1       0.0036842
                    4      1       0.0078947
                    5      1       0.0163158
                    6      1       0.0331579
                    7      1       0.0668421
                    8      1       0.0836842
                    9      1       0.0921053
                   10      1       0.0963158
                   11      1       0.0984211
                   12      1       0.0994737
                   13      1       0.1000000
     Exposed Backing

   4 SHEET METAL
     Material List
          1  STEEL
     Layer  1
        Thickness   (m):  0.00130
        Density (kg/m3):  7850.00
        STEEL, Mass fraction:    1.00
     Reaction products considered from the first  0.50 layers.
     Total surface density    10.205 kg/m2
     Solid Phase Node, Layer, Coordinates(m):
                    0      1       0.0000000
                    1      1       0.0013000
     Exposed Backing

   5 CEILING TILE
     Material List
          1  TILE MATERIAL
     Layer  1
        Thickness   (m):  0.01600
        Density (kg/m3):   313.00
        TILE MATERIAL, Mass fraction:    1.00
     Reaction products considered from the first  0.50 layers.
     Total surface density     5.008 kg/m2
     Solid Phase Node, Layer, Coordinates(m):
                    0      1       0.0000000
                    1      1       0.0003478
                    2      1       0.0010435
                    3      1       0.0024348
                    4      1       0.0052174
                    5      1       0.0107826
                    6      1       0.0135652
                    7      1       0.0149565
                    8      1       0.0156522
                    9      1       0.0160000
     Exposed Backing

   6 PLASTIC A
     FMRC Standard Plastic Commodity
     Material List
          1  CORRUGATED PAPER
     Layer  1
        Thickness   (m):  0.00500
        Density (kg/m3):   200.00
        CORRUGATED PAPER, Mass fraction:    1.00
     Reaction products considered from the first  0.50 layers.
     Total surface density     1.000 kg/m2
     Solid Phase Node, Layer, Coordinates(m):
                    0      1       0.0000000
                    1      1       0.0005000
                    2      1       0.0015000
                    3      1       0.0035000
                    4      1       0.0045000
                    5      1       0.0050000
     Exposed Backing
     HRR Per Unit Area (kW/m2)        500.0
     POLYSTYRENE Mass Flux (kg/s/m2)   4.348E-02

   7 PALLET
     Material List
          1  YELLOW PINE
     Layer  1
        Thickness   (m):  0.01200
        Density (kg/m3):   640.00
        YELLOW PINE, Mass fraction:    1.00
     Reaction products considered from the first  0.50 layers.
     Total surface density     7.680 kg/m2
     Solid Phase Node, Layer, Coordinates(m):
                    0      1       0.0000000
                    1      1       0.0002609
                    2      1       0.0007826
                    3      1       0.0018261
                    4      1       0.0039130
                    5      1       0.0080870
                    6      1       0.0101739
                    7      1       0.0112174
                    8      1       0.0117391
                    9      1       0.0120000
     Exposed Backing

   8 IGNITOR
     HRR Per Unit Area (kW/m2)       2000.0
     POLYSTYRENE Mass Flux (kg/s/m2)   5.000E-02

   9 OPEN
     Passive Vent to Atmosphere

  10 MIRROR
     Symmetry Plane

  11 INTERPOLATED

  12 PERIODIC

  13 HVAC

  14 MASSLESS TRACER

  15 DROPLET

  16 MASSLESS TARGET

  17 PERIODIC FLOW ONLY


 Lagrangian Particle Classes

   1 Occupant 1
     SURFace ID: OCCUPANT
     # Reals: 73
     # Integers: 23
     # Logicals: 5

   2 water drops
     SURFace ID: DROPLET
     # Reals: 73
     # Integers: 23
     # Logicals: 5

   3 water drops2
     SURFace ID: DROPLET
     # Reals: 73
     # Integers: 23
     # Logicals: 5

   4 Occupant 2
     SURFace ID: OCCUPANT
     # Reals: 73
     # Integers: 23
     # Logicals: 5


 PROPerty Information

   1 K-11
     RTI (m-s)^1/2                   50.0
     C-Factor (m/s)^1/2              0.70
     Activation Temperature (C)      74.0
     Flow Rate (L/min)               1.00
     K-Factor (L/min/bar**0.5)      10.00
     Particle Class              water drops
     Smokeview ID                sprinkler_upright


 Cut-off Density and Temperature

    Minimum Temperature:  -259.1 C
    Maximum Temperature:  2726.8 C
    Minimum Density:  1.195E-01 kg/m3
    Maximum Density:  1.813E+02 kg/m3


 Device Information

   1 ID: Spr_01
     QUANTITY: SPRINKLER LINK TEMPERATURE
     Coordinates (X,Y,Z):    1.520000E+00    3.800000E-01    8.120000E+00
     TEMPORAL STATISTIC: TIME AVERAGE
  Property ID: K-11
   2 ID: Spr_02
     QUANTITY: SPRINKLER LINK TEMPERATURE
     Coordinates (X,Y,Z):    4.570000E+00    3.800000E-01    8.120000E+00
     TEMPORAL STATISTIC: TIME AVERAGE
  Property ID: K-11
   3 ID: Spr_03
     QUANTITY: SPRINKLER LINK TEMPERATURE
     Coordinates (X,Y,Z):    7.620000E+00    3.800000E-01    8.120000E+00
     TEMPORAL STATISTIC: TIME AVERAGE
  Property ID: K-11
   4 ID: Spr_04
     QUANTITY: SPRINKLER LINK TEMPERATURE
     Coordinates (X,Y,Z):    1.067000E+01    3.800000E-01    8.120000E+00
     TEMPORAL STATISTIC: TIME AVERAGE
  Property ID: K-11
   5 ID: Spr_05
     QUANTITY: SPRINKLER LINK TEMPERATURE
     Coordinates (X,Y,Z):    1.372000E+01    3.800000E-01    8.120000E+00
     TEMPORAL STATISTIC: TIME AVERAGE
  Property ID: K-11
   6 ID: Spr_06
     QUANTITY: SPRINKLER LINK TEMPERATURE
     Coordinates (X,Y,Z):    1.677000E+01    3.800000E-01    8.120000E+00
     TEMPORAL STATISTIC: TIME AVERAGE
  Property ID: K-11
   7 ID: Spr_07
     QUANTITY: SPRINKLER LINK TEMPERATURE
     Coordinates (X,Y,Z):    1.982000E+01    3.800000E-01    8.120000E+00
     TEMPORAL STATISTIC: TIME AVERAGE
  Property ID: K-11
   8 ID: Spr_08
     QUANTITY: SPRINKLER LINK TEMPERATURE
     Coordinates (X,Y,Z):    2.287000E+01    3.800000E-01    8.120000E+00
     TEMPORAL STATISTIC: TIME AVERAGE
  Property ID: K-11
   9 ID: Spr_09
     QUANTITY: SPRINKLER LINK TEMPERATURE
     Coordinates (X,Y,Z):    2.592000E+01    3.800000E-01    8.120000E+00
     TEMPORAL STATISTIC: TIME AVERAGE
  Property ID: K-11
  10 ID: Spr_10
     QUANTITY: SPRINKLER LINK TEMPERATURE
     Coordinates (X,Y,Z):    2.897000E+01    3.800000E-01    8.120000E+00
     TEMPORAL STATISTIC: TIME AVERAGE
  Property ID: K-11
  11 ID: Spr_11
     QUANTITY: SPRINKLER LINK TEMPERATURE
     Coordinates (X,Y,Z):    1.520000E+00    3.430000E+00    8.120000E+00
     TEMPORAL STATISTIC: TIME AVERAGE
  Property ID: K-11
  12 ID: Spr_12
     QUANTITY: SPRINKLER LINK TEMPERATURE
     Coordinates (X,Y,Z):    4.570000E+00    3.430000E+00    8.120000E+00
     TEMPORAL STATISTIC: TIME AVERAGE
  Property ID: K-11
  13 ID: Spr_13
     QUANTITY: SPRINKLER LINK TEMPERATURE
     Coordinates (X,Y,Z):    7.620000E+00    3.430000E+00    8.120000E+00
     TEMPORAL STATISTIC: TIME AVERAGE
  Property ID: K-11
  14 ID: Spr_14
     QUANTITY: SPRINKLER LINK TEMPERATURE
     Coordinates (X,Y,Z):    1.067000E+01    3.430000E+00    8.120000E+00
     TEMPORAL STATISTIC: TIME AVERAGE
  Property ID: K-11
  15 ID: Spr_15
     QUANTITY: SPRINKLER LINK TEMPERATURE
     Coordinates (X,Y,Z):    1.372000E+01    3.430000E+00    8.120000E+00
     TEMPORAL STATISTIC: TIME AVERAGE
  Property ID: K-11
  16 ID: Spr_16
     QUANTITY: SPRINKLER LINK TEMPERATURE
     Coordinates (X,Y,Z):    1.677000E+01    3.430000E+00    8.120000E+00
     TEMPORAL STATISTIC: TIME AVERAGE
  Property ID: K-11
  17 ID: Spr_17
     QUANTITY: SPRINKLER LINK TEMPERATURE
     Coordinates (X,Y,Z):    1.982000E+01    3.430000E+00    8.120000E+00
     TEMPORAL STATISTIC: TIME AVERAGE
  Property ID: K-11
  18 ID: Spr_18
     QUANTITY: SPRINKLER LINK TEMPERATURE
     Coordinates (X,Y,Z):    2.287000E+01    3.430000E+00    8.120000E+00
     TEMPORAL STATISTIC: TIME AVERAGE
  Property ID: K-11
  19 ID: Spr_19
     QUANTITY: SPRINKLER LINK TEMPERATURE
     Coordinates (X,Y,Z):    2.592000E+01    3.430000E+00    8.120000E+00
     TEMPORAL STATISTIC: TIME AVERAGE
  Property ID: K-11
  20 ID: Spr_20
     QUANTITY: SPRINKLER LINK TEMPERATURE
     Coordinates (X,Y,Z):    2.897000E+01    3.430000E+00    8.120000E+00
     TEMPORAL STATISTIC: TIME AVERAGE
  Property ID: K-11
  21 ID: Spr_21
     QUANTITY: SPRINKLER LINK TEMPERATURE
     Coordinates (X,Y,Z):    1.520000E+00    6.480000E+00    8.120000E+00
     TEMPORAL STATISTIC: TIME AVERAGE
  Property ID: K-11
  22 ID: Spr_22
     QUANTITY: SPRINKLER LINK TEMPERATURE
     Coordinates (X,Y,Z):    4.570000E+00    6.480000E+00    8.120000E+00
     TEMPORAL STATISTIC: TIME AVERAGE
  Property ID: K-11
  23 ID: Spr_23
     QUANTITY: SPRINKLER LINK TEMPERATURE
     Coordinates (X,Y,Z):    7.620000E+00    6.480000E+00    8.120000E+00
     TEMPORAL STATISTIC: TIME AVERAGE
  Property ID: K-11
  24 ID: Spr_24
     QUANTITY: SPRINKLER LINK TEMPERATURE
     Coordinates (X,Y,Z):    1.067000E+01    6.480000E+00    8.120000E+00
     TEMPORAL STATISTIC: TIME AVERAGE
  Property ID: K-11
  25 ID: Spr_25
     QUANTITY: SPRINKLER LINK TEMPERATURE
     Coordinates (X,Y,Z):    1.372000E+01    6.480000E+00    8.120000E+00
     TEMPORAL STATISTIC: TIME AVERAGE
  Property ID: K-11
  26 ID: Spr_26
     QUANTITY: SPRINKLER LINK TEMPERATURE
     Coordinates (X,Y,Z):    1.677000E+01    6.480000E+00    8.120000E+00
     TEMPORAL STATISTIC: TIME AVERAGE
  Property ID: K-11
  27 ID: Spr_27
     QUANTITY: SPRINKLER LINK TEMPERATURE
     Coordinates (X,Y,Z):    1.982000E+01    6.480000E+00    8.120000E+00
     TEMPORAL STATISTIC: TIME AVERAGE
  Property ID: K-11
  28 ID: Spr_28
     QUANTITY: SPRINKLER LINK TEMPERATURE
     Coordinates (X,Y,Z):    2.287000E+01    6.480000E+00    8.120000E+00
     TEMPORAL STATISTIC: TIME AVERAGE
  Property ID: K-11
  29 ID: Spr_29
     QUANTITY: SPRINKLER LINK TEMPERATURE
     Coordinates (X,Y,Z):    2.592000E+01    6.480000E+00    8.120000E+00
     TEMPORAL STATISTIC: TIME AVERAGE
  Property ID: K-11
  30 ID: Spr_30
     QUANTITY: SPRINKLER LINK TEMPERATURE
     Coordinates (X,Y,Z):    2.897000E+01    6.480000E+00    8.120000E+00
     TEMPORAL STATISTIC: TIME AVERAGE
  Property ID: K-11
  31 ID: Spr_31
     QUANTITY: SPRINKLER LINK TEMPERATURE
     Coordinates (X,Y,Z):    1.520000E+00    9.530000E+00    8.120000E+00
     TEMPORAL STATISTIC: TIME AVERAGE
  Property ID: K-11
  32 ID: Spr_32
     QUANTITY: SPRINKLER LINK TEMPERATURE
     Coordinates (X,Y,Z):    4.570000E+00    9.530000E+00    8.120000E+00
     TEMPORAL STATISTIC: TIME AVERAGE
  Property ID: K-11
  33 ID: Spr_33
     QUANTITY: SPRINKLER LINK TEMPERATURE
     Coordinates (X,Y,Z):    7.620000E+00    9.530000E+00    8.120000E+00
     TEMPORAL STATISTIC: TIME AVERAGE
  Property ID: K-11
  34 ID: Spr_34
     QUANTITY: SPRINKLER LINK TEMPERATURE
     Coordinates (X,Y,Z):    1.067000E+01    9.530000E+00    8.120000E+00
     TEMPORAL STATISTIC: TIME AVERAGE
  Property ID: K-11
  35 ID: Spr_35
     QUANTITY: SPRINKLER LINK TEMPERATURE
     Coordinates (X,Y,Z):    1.372000E+01    9.530000E+00    8.120000E+00
     TEMPORAL STATISTIC: TIME AVERAGE
  Property ID: K-11
  36 ID: Spr_36
     QUANTITY: SPRINKLER LINK TEMPERATURE
     Coordinates (X,Y,Z):    1.677000E+01    9.530000E+00    8.120000E+00
     TEMPORAL STATISTIC: TIME AVERAGE
  Property ID: K-11
  37 ID: Spr_37
     QUANTITY: SPRINKLER LINK TEMPERATURE
     Coordinates (X,Y,Z):    1.982000E+01    9.530000E+00    8.120000E+00
     TEMPORAL STATISTIC: TIME AVERAGE
  Property ID: K-11
  38 ID: Spr_38
     QUANTITY: SPRINKLER LINK TEMPERATURE
     Coordinates (X,Y,Z):    2.287000E+01    9.530000E+00    8.120000E+00
     TEMPORAL STATISTIC: TIME AVERAGE
  Property ID: K-11
  39 ID: Spr_39
     QUANTITY: SPRINKLER LINK TEMPERATURE
     Coordinates (X,Y,Z):    2.592000E+01    9.530000E+00    8.120000E+00
     TEMPORAL STATISTIC: TIME AVERAGE
  Property ID: K-11
  40 ID: Spr_40
     QUANTITY: SPRINKLER LINK TEMPERATURE
     Coordinates (X,Y,Z):    2.897000E+01    9.530000E+00    8.120000E+00
     TEMPORAL STATISTIC: TIME AVERAGE
  Property ID: K-11
  41 ID: Spr_41
     QUANTITY: SPRINKLER LINK TEMPERATURE
     Coordinates (X,Y,Z):    1.520000E+00    1.257000E+01    8.120000E+00
     TEMPORAL STATISTIC: TIME AVERAGE
  Property ID: K-11
  42 ID: Spr_42
     QUANTITY: SPRINKLER LINK TEMPERATURE
     Coordinates (X,Y,Z):    4.570000E+00    1.257000E+01    8.120000E+00
     TEMPORAL STATISTIC: TIME AVERAGE
  Property ID: K-11
  43 ID: Spr_43
     QUANTITY: SPRINKLER LINK TEMPERATURE
     Coordinates (X,Y,Z):    7.620000E+00    1.257000E+01    8.120000E+00
     TEMPORAL STATISTIC: TIME AVERAGE
  Property ID: K-11
  44 ID: Spr_44
     QUANTITY: SPRINKLER LINK TEMPERATURE
     Coordinates (X,Y,Z):    1.067000E+01    1.257000E+01    8.120000E+00
     TEMPORAL STATISTIC: TIME AVERAGE
  Property ID: K-11
  45 ID: Spr_45
     QUANTITY: SPRINKLER LINK TEMPERATURE
     Coordinates (X,Y,Z):    1.372000E+01    1.257000E+01    8.120000E+00
     TEMPORAL STATISTIC: TIME AVERAGE
  Property ID: K-11
  46 ID: Spr_46
     QUANTITY: SPRINKLER LINK TEMPERATURE
     Coordinates (X,Y,Z):    1.677000E+01    1.257000E+01    8.120000E+00
     TEMPORAL STATISTIC: TIME AVERAGE
  Property ID: K-11
  47 ID: Spr_47
     QUANTITY: SPRINKLER LINK TEMPERATURE
     Coordinates (X,Y,Z):    1.982000E+01    1.257000E+01    8.120000E+00
     TEMPORAL STATISTIC: TIME AVERAGE
  Property ID: K-11
  48 ID: Spr_48
     QUANTITY: SPRINKLER LINK TEMPERATURE
     Coordinates (X,Y,Z):    2.287000E+01    1.257000E+01    8.120000E+00
     TEMPORAL STATISTIC: TIME AVERAGE
  Property ID: K-11
  49 ID: Spr_49
     QUANTITY: SPRINKLER LINK TEMPERATURE
     Coordinates (X,Y,Z):    2.592000E+01    1.257000E+01    8.120000E+00
     TEMPORAL STATISTIC: TIME AVERAGE
  Property ID: K-11
  50 ID: Spr_50
     QUANTITY: SPRINKLER LINK TEMPERATURE
     Coordinates (X,Y,Z):    2.897000E+01    1.257000E+01    8.120000E+00
     TEMPORAL STATISTIC: TIME AVERAGE
  Property ID: K-11
  51 ID: Spr_51
     QUANTITY: SPRINKLER LINK TEMPERATURE
     Coordinates (X,Y,Z):    1.520000E+00    1.562000E+01    8.120000E+00
     TEMPORAL STATISTIC: TIME AVERAGE
  Property ID: K-11
  52 ID: Spr_52
     QUANTITY: SPRINKLER LINK TEMPERATURE
     Coordinates (X,Y,Z):    4.570000E+00    1.562000E+01    8.120000E+00
     TEMPORAL STATISTIC: TIME AVERAGE
  Property ID: K-11
  53 ID: Spr_53
     QUANTITY: SPRINKLER LINK TEMPERATURE
     Coordinates (X,Y,Z):    7.620000E+00    1.562000E+01    8.120000E+00
     TEMPORAL STATISTIC: TIME AVERAGE
  Property ID: K-11
  54 ID: Spr_54
     QUANTITY: SPRINKLER LINK TEMPERATURE
     Coordinates (X,Y,Z):    1.067000E+01    1.562000E+01    8.120000E+00
     TEMPORAL STATISTIC: TIME AVERAGE
  Property ID: K-11
  55 ID: Spr_55
     QUANTITY: SPRINKLER LINK TEMPERATURE
     Coordinates (X,Y,Z):    1.372000E+01    1.562000E+01    8.120000E+00
     TEMPORAL STATISTIC: TIME AVERAGE
  Property ID: K-11
  56 ID: Spr_56
     QUANTITY: SPRINKLER LINK TEMPERATURE
     Coordinates (X,Y,Z):    1.677000E+01    1.562000E+01    8.120000E+00
     TEMPORAL STATISTIC: TIME AVERAGE
  Property ID: K-11
  57 ID: Spr_57
     QUANTITY: SPRINKLER LINK TEMPERATURE
     Coordinates (X,Y,Z):    1.982000E+01    1.562000E+01    8.120000E+00
     TEMPORAL STATISTIC: TIME AVERAGE
  Property ID: K-11
  58 ID: Spr_58
     QUANTITY: SPRINKLER LINK TEMPERATURE
     Coordinates (X,Y,Z):    2.287000E+01    1.562000E+01    8.120000E+00
     TEMPORAL STATISTIC: TIME AVERAGE
  Property ID: K-11
  59 ID: Spr_59
     QUANTITY: SPRINKLER LINK TEMPERATURE
     Coordinates (X,Y,Z):    2.592000E+01    1.562000E+01    8.120000E+00
     TEMPORAL STATISTIC: TIME AVERAGE
  Property ID: K-11
  60 ID: Spr_60
     QUANTITY: SPRINKLER LINK TEMPERATURE
     Coordinates (X,Y,Z):    2.897000E+01    1.562000E+01    8.120000E+00
     TEMPORAL STATISTIC: TIME AVERAGE
  Property ID: K-11
  61 ID: Spr_61
     QUANTITY: SPRINKLER LINK TEMPERATURE
     Coordinates (X,Y,Z):    1.520000E+00    1.867000E+01    8.120000E+00
     TEMPORAL STATISTIC: TIME AVERAGE
  Property ID: K-11
  62 ID: Spr_62
     QUANTITY: SPRINKLER LINK TEMPERATURE
     Coordinates (X,Y,Z):    4.570000E+00    1.867000E+01    8.120000E+00
     TEMPORAL STATISTIC: TIME AVERAGE
  Property ID: K-11
  63 ID: Spr_63
     QUANTITY: SPRINKLER LINK TEMPERATURE
     Coordinates (X,Y,Z):    7.620000E+00    1.867000E+01    8.120000E+00
     TEMPORAL STATISTIC: TIME AVERAGE
  Property ID: K-11
  64 ID: Spr_64
     QUANTITY: SPRINKLER LINK TEMPERATURE
     Coordinates (X,Y,Z):    1.067000E+01    1.867000E+01    8.120000E+00
     TEMPORAL STATISTIC: TIME AVERAGE
  Property ID: K-11
  65 ID: Spr_65
     QUANTITY: SPRINKLER LINK TEMPERATURE
     Coordinates (X,Y,Z):    1.372000E+01    1.867000E+01    8.120000E+00
     TEMPORAL STATISTIC: TIME AVERAGE
  Property ID: K-11
  66 ID: Spr_66
     QUANTITY: SPRINKLER LINK TEMPERATURE
     Coordinates (X,Y,Z):    1.677000E+01    1.867000E+01    8.120000E+00
     TEMPORAL STATISTIC: TIME AVERAGE
  Property ID: K-11
  67 ID: Spr_67
     QUANTITY: SPRINKLER LINK TEMPERATURE
     Coordinates (X,Y,Z):    1.982000E+01    1.867000E+01    8.120000E+00
     TEMPORAL STATISTIC: TIME AVERAGE
  Property ID: K-11
  68 ID: Spr_68
     QUANTITY: SPRINKLER LINK TEMPERATURE
     Coordinates (X,Y,Z):    2.287000E+01    1.867000E+01    8.120000E+00
     TEMPORAL STATISTIC: TIME AVERAGE
  Property ID: K-11
  69 ID: Spr_69
     QUANTITY: SPRINKLER LINK TEMPERATURE
     Coordinates (X,Y,Z):    2.592000E+01    1.867000E+01    8.120000E+00
     TEMPORAL STATISTIC: TIME AVERAGE
  Property ID: K-11
  70 ID: Spr_70
     QUANTITY: SPRINKLER LINK TEMPERATURE
     Coordinates (X,Y,Z):    2.897000E+01    1.867000E+01    8.120000E+00
     TEMPORAL STATISTIC: TIME AVERAGE
  Property ID: K-11
  71 ID: Spr_71
     QUANTITY: SPRINKLER LINK TEMPERATURE
     Coordinates (X,Y,Z):    1.520000E+00    2.172000E+01    8.120000E+00
     TEMPORAL STATISTIC: TIME AVERAGE
  Property ID: K-11
  72 ID: Spr_72
     QUANTITY: SPRINKLER LINK TEMPERATURE
     Coordinates (X,Y,Z):    4.570000E+00    2.172000E+01    8.120000E+00
     TEMPORAL STATISTIC: TIME AVERAGE
  Property ID: K-11
  73 ID: Spr_73
     QUANTITY: SPRINKLER LINK TEMPERATURE
     Coordinates (X,Y,Z):    7.620000E+00    2.172000E+01    8.120000E+00
     TEMPORAL STATISTIC: TIME AVERAGE
  Property ID: K-11
  74 ID: Spr_74
     QUANTITY: SPRINKLER LINK TEMPERATURE
     Coordinates (X,Y,Z):    1.067000E+01    2.172000E+01    8.120000E+00
     TEMPORAL STATISTIC: TIME AVERAGE
  Property ID: K-11
  75 ID: Spr_75
     QUANTITY: SPRINKLER LINK TEMPERATURE
     Coordinates (X,Y,Z):    1.372000E+01    2.172000E+01    8.120000E+00
     TEMPORAL STATISTIC: TIME AVERAGE
  Property ID: K-11
  76 ID: Spr_76
     QUANTITY: SPRINKLER LINK TEMPERATURE
     Coordinates (X,Y,Z):    1.677000E+01    2.172000E+01    8.120000E+00
     TEMPORAL STATISTIC: TIME AVERAGE
  Property ID: K-11
  77 ID: Spr_77
     QUANTITY: SPRINKLER LINK TEMPERATURE
     Coordinates (X,Y,Z):    1.982000E+01    2.172000E+01    8.120000E+00
     TEMPORAL STATISTIC: TIME AVERAGE
  Property ID: K-11
  78 ID: Spr_78
     QUANTITY: SPRINKLER LINK TEMPERATURE
     Coordinates (X,Y,Z):    2.287000E+01    2.172000E+01    8.120000E+00
     TEMPORAL STATISTIC: TIME AVERAGE
  Property ID: K-11
  79 ID: Spr_79
     QUANTITY: SPRINKLER LINK TEMPERATURE
     Coordinates (X,Y,Z):    2.592000E+01    2.172000E+01    8.120000E+00
     TEMPORAL STATISTIC: TIME AVERAGE
  Property ID: K-11
  80 ID: Spr_80
     QUANTITY: SPRINKLER LINK TEMPERATURE
     Coordinates (X,Y,Z):    2.897000E+01    2.172000E+01    8.120000E+00
     TEMPORAL STATISTIC: TIME AVERAGE
  Property ID: K-11
  81 ID: Spr_81
     QUANTITY: SPRINKLER LINK TEMPERATURE
     Coordinates (X,Y,Z):    1.520000E+00    2.477000E+01    8.120000E+00
     TEMPORAL STATISTIC: TIME AVERAGE
  Property ID: K-11
  82 ID: Spr_82
     QUANTITY: SPRINKLER LINK TEMPERATURE
     Coordinates (X,Y,Z):    4.570000E+00    2.477000E+01    8.120000E+00
     TEMPORAL STATISTIC: TIME AVERAGE
  Property ID: K-11
  83 ID: Spr_83
     QUANTITY: SPRINKLER LINK TEMPERATURE
     Coordinates (X,Y,Z):    7.620000E+00    2.477000E+01    8.120000E+00
     TEMPORAL STATISTIC: TIME AVERAGE
  Property ID: K-11
  84 ID: Spr_84
     QUANTITY: SPRINKLER LINK TEMPERATURE
     Coordinates (X,Y,Z):    1.067000E+01    2.477000E+01    8.120000E+00
     TEMPORAL STATISTIC: TIME AVERAGE
  Property ID: K-11
  85 ID: Spr_85
     QUANTITY: SPRINKLER LINK TEMPERATURE
     Coordinates (X,Y,Z):    1.372000E+01    2.477000E+01    8.120000E+00
     TEMPORAL STATISTIC: TIME AVERAGE
  Property ID: K-11
  86 ID: Spr_86
     QUANTITY: SPRINKLER LINK TEMPERATURE
     Coordinates (X,Y,Z):    1.677000E+01    2.477000E+01    8.120000E+00
     TEMPORAL STATISTIC: TIME AVERAGE
  Property ID: K-11
  87 ID: Spr_87
     QUANTITY: SPRINKLER LINK TEMPERATURE
     Coordinates (X,Y,Z):    1.982000E+01    2.477000E+01    8.120000E+00
     TEMPORAL STATISTIC: TIME AVERAGE
  Property ID: K-11
  88 ID: Spr_88
     QUANTITY: SPRINKLER LINK TEMPERATURE
     Coordinates (X,Y,Z):    2.287000E+01    2.477000E+01    8.120000E+00
     TEMPORAL STATISTIC: TIME AVERAGE
  Property ID: K-11
  89 ID: Spr_89
     QUANTITY: SPRINKLER LINK TEMPERATURE
     Coordinates (X,Y,Z):    2.592000E+01    2.477000E+01    8.120000E+00
     TEMPORAL STATISTIC: TIME AVERAGE
  Property ID: K-11
  90 ID: Spr_90
     QUANTITY: SPRINKLER LINK TEMPERATURE
     Coordinates (X,Y,Z):    2.897000E+01    2.477000E+01    8.120000E+00
     TEMPORAL STATISTIC: TIME AVERAGE
  Property ID: K-11
  91 ID: Spr_91
     QUANTITY: SPRINKLER LINK TEMPERATURE
     Coordinates (X,Y,Z):    1.520000E+00    2.782000E+01    8.120000E+00
     TEMPORAL STATISTIC: TIME AVERAGE
  Property ID: K-11
  92 ID: Spr_92
     QUANTITY: SPRINKLER LINK TEMPERATURE
     Coordinates (X,Y,Z):    4.570000E+00    2.782000E+01    8.120000E+00
     TEMPORAL STATISTIC: TIME AVERAGE
  Property ID: K-11
  93 ID: Spr_93
     QUANTITY: SPRINKLER LINK TEMPERATURE
     Coordinates (X,Y,Z):    7.620000E+00    2.782000E+01    8.120000E+00
     TEMPORAL STATISTIC: TIME AVERAGE
  Property ID: K-11
  94 ID: Spr_94
     QUANTITY: SPRINKLER LINK TEMPERATURE
     Coordinates (X,Y,Z):    1.067000E+01    2.782000E+01    8.120000E+00
     TEMPORAL STATISTIC: TIME AVERAGE
  Property ID: K-11
  95 ID: Spr_95
     QUANTITY: SPRINKLER LINK TEMPERATURE
     Coordinates (X,Y,Z):    1.372000E+01    2.782000E+01    8.120000E+00
     TEMPORAL STATISTIC: TIME AVERAGE
  Property ID: K-11
  96 ID: Spr_96
     QUANTITY: SPRINKLER LINK TEMPERATURE
     Coordinates (X,Y,Z):    1.677000E+01    2.782000E+01    8.120000E+00
     TEMPORAL STATISTIC: TIME AVERAGE
  Property ID: K-11
  97 ID: Spr_97
     QUANTITY: SPRINKLER LINK TEMPERATURE
     Coordinates (X,Y,Z):    1.982000E+01    2.782000E+01    8.120000E+00
     TEMPORAL STATISTIC: TIME AVERAGE
  Property ID: K-11
  98 ID: Spr_98
     QUANTITY: SPRINKLER LINK TEMPERATURE
     Coordinates (X,Y,Z):    2.287000E+01    2.782000E+01    8.120000E+00
     TEMPORAL STATISTIC: TIME AVERAGE
  Property ID: K-11
  99 ID: Spr_99
     QUANTITY: SPRINKLER LINK TEMPERATURE
     Coordinates (X,Y,Z):    2.592000E+01    2.782000E+01    8.120000E+00
     TEMPORAL STATISTIC: TIME AVERAGE
  Property ID: K-11
 100 ID: Spr_100
     QUANTITY: SPRINKLER LINK TEMPERATURE
     Coordinates (X,Y,Z):    2.897000E+01    2.782000E+01    8.120000E+00
     TEMPORAL STATISTIC: TIME AVERAGE
  Property ID: K-11
 101 ID: vent link 1
     QUANTITY: TIME
     Coordinates (X,Y,Z):    2.450000E+01    1.850000E+01    7.500000E+00
     TEMPORAL STATISTIC: TIME AVERAGE
 102 ID: vent link 2
     QUANTITY: TIME
     Coordinates (X,Y,Z):    2.450000E+01    1.850000E+01    7.500000E+00
     TEMPORAL STATISTIC: TIME AVERAGE
 103 ID: vent link 3
     QUANTITY: TIME
     Coordinates (X,Y,Z):    2.450000E+01    1.850000E+01    7.500000E+00
     TEMPORAL STATISTIC: TIME AVERAGE
 104 ID: vent link 4
     QUANTITY: TIME
     Coordinates (X,Y,Z):    2.450000E+01    1.850000E+01    7.500000E+00
     TEMPORAL STATISTIC: TIME AVERAGE
 105 ID: vent link 5
     QUANTITY: TIME
     Coordinates (X,Y,Z):    2.450000E+01    1.850000E+01    7.500000E+00
     TEMPORAL STATISTIC: TIME AVERAGE
 106 ID: Acts
     QUANTITY: ACTUATED SPRINKLERS
     Coordinates (X,Y,Z):    1.499400E+01    1.499400E+01    1.000000E+00
     TEMPORAL STATISTIC: INSTANT VALUE


 Slice File Information, Mesh     1

   1 Nodes:   0  25   0  25   0  15, Quantity: TEMPERATURE
   2 Nodes:   0  25   0  25   0  15, Quantity: HRRPUV
   3 Nodes:   0  25   0  25  12  12, Quantity: TEMPERATURE


 Boundary File Information

   1 Quantity: water drops AMPUA
   2 Quantity: HRRPUA
   3 Quantity: GAS TEMPERATURE
   4 Quantity: WALL TEMPERATURE


 Radiation Model Information

   Number of control angles  104
   Time step increment         3
   Angle increment             5
   Theta band N_phi   Solid angle
     1:        4     0.120
     2:       12     0.114
     3:       16     0.127
     4:       20     0.120
     5:       20     0.120
     6:       16     0.127
     7:       12     0.114
     8:        4     0.120
   Using gray gas absorption.
   Mean beam length  1.000E-01 m
 
 

 Run Time Diagnostics

       Time Step       1   July  7, 2023  08:37:20
       Step Size:    0.319E+00 s, Total Time:       0.32 s
       Pressure Iterations: 1
       Maximum Velocity Error:  0.67E-02 on Mesh 2 at (25,11,5)
       Maximum Pressure Error:  0.21E-01 on Mesh 3 at (6,23,2)
       ---------------------------------------------------------------
       Mesh    1
       Max CFL number:  0.14E-01 at (13,16,7)
       Max divergence:  0.16E-05 at (23,3,2)
       Min divergence: -0.19E-05 at (9,22,13)
       Max VN number:   0.18E-01 at (15,20,4)
       No. of Lagrangian Particles:  6
       Radiation Loss to Boundaries:        -0.021 kW
       Mesh    2
       Max CFL number:  0.16E-01 at (22,17,4)
       Max divergence:  0.19E-05 at (11,20,2)
       Min divergence: -0.20E-05 at (23,5,13)
       Max VN number:   0.15E-01 at (8,16,14)
       Radiation Loss to Boundaries:        -0.021 kW
       Mesh    3
       Max CFL number:  0.17E-01 at (8,19,5)
       Max divergence:  0.19E-05 at (24,3,2)
       Min divergence: -0.32E-02 at (5,23,2)
       Max VN number:   0.18E-01 at (15,4,14)
       Radiation Loss to Boundaries:        -0.015 kW
       Mesh    4
       Max CFL number:  0.15E-01 at (3,12,5)
       Max divergence:  0.18E-05 at (23,7,2)
       Min divergence: -0.17E-05 at (3,20,13)
       Max VN number:   0.13E-01 at (19,18,14)
       Radiation Loss to Boundaries:        -0.011 kW
 
       Time Step       2   July  7, 2023  08:37:20
       Step Size:    0.319E+00 s, Total Time:       0.64 s
       Pressure Iterations: 1
       Maximum Velocity Error:  0.25E+00 on Mesh 3 at (6,25,2)
       Maximum Pressure Error:  0.15E+02 on Mesh 3 at (6,22,2)
       ---------------------------------------------------------------
       Mesh    1
       Max CFL number:  0.14E-01 at (13,16,7)
       Max divergence:  0.16E-05 at (23,3,2)
       Min divergence: -0.19E-05 at (9,22,13)
       Max VN number:   0.22E-01 at (15,20,4)
       No. of Lagrangian Particles:  6
       Radiation Loss to Boundaries:        -0.021 kW
       Mesh    2
       Max CFL number:  0.16E-01 at (22,17,4)
       Max divergence:  0.19E-05 at (11,20,2)
       Min divergence: -0.20E-05 at (23,5,13)
       Max VN number:   0.12E-01 at (18,6,14)
       Radiation Loss to Boundaries:        -0.021 kW
       Mesh    3
       Max CFL number:  0.17E-01 at (8,19,5)
       Max divergence:  0.23E+01 at (5,21,2)
       Min divergence: -0.19E-05 at (23,22,13)
       Max VN number:   0.18E-01 at (1,23,8)
       Total Heat Release Rate:           1575.617 kW
       Radiation Loss to Boundaries:        -0.015 kW
       Mesh    4
       Max CFL number:  0.15E-01 at (3,12,5)
       Max divergence:  0.18E-05 at (23,7,2)
       Min divergence: -0.17E-05 at (3,20,13)
       Max VN number:   0.99E-02 at (2,3,14)
       Radiation Loss to Boundaries:        -0.011 kW
 
       Time Step       3   July  7, 2023  08:37:21
       Step Size:    0.205E+00 s, Total Time:       0.84 s
       Pressure Iterations: 1
       Maximum Velocity Error:  0.23E+00 on Mesh 3 at (6,25,2)
       Maximum Pressure Error:  0.14E+02 on Mesh 3 at (6,21,2)
       ---------------------------------------------------------------
       Mesh    1
       Max CFL number:  0.91E-02 at (13,24,2)
       Max divergence:  0.16E-05 at (23,3,2)
       Min divergence: -0.19E-05 at (9,22,13)
       Max VN number:   0.14E-01 at (15,20,4)
       No. of Lagrangian Particles:  6
       Radiation Loss to Boundaries:        -0.020 kW
       Mesh    2
       Max CFL number:  0.10E-01 at (22,17,4)
       Max divergence:  0.19E-05 at (11,20,2)
       Min divergence: -0.20E-05 at (23,5,13)
       Max VN number:   0.75E-02 at (18,6,14)
       Radiation Loss to Boundaries:        -0.018 kW
       Mesh    3
       Max CFL number:  0.95E+00 at (5,23,2)
       Max divergence:  0.22E+01 at (6,22,2)
       Min divergence: -0.18E-05 at (23,22,13)
       Max VN number:   0.17E+00 at (5,23,2)
       Total Heat Release Rate:           2784.786 kW
       Radiation Loss to Boundaries:      -396.681 kW
       Mesh    4
       Max CFL number:  0.21E-01 at (6,1,2)
       Max divergence:  0.21E-05 at (6,1,4)
       Min divergence: -0.17E-05 at (3,20,13)
       Max VN number:   0.87E-02 at (6,1,1)
       Radiation Loss to Boundaries:        -0.009 kW
 
       Time Step       4   July  7, 2023  08:37:21
       Step Size:    0.205E+00 s, Total Time:       1.05 s
       Pressure Iterations: 10
       Maximum Velocity Error:  0.38E-01 on Mesh 3 at (6,25,1)
       Maximum Pressure Error:  0.15E+03 on Mesh 3 at (6,22,2)
       ---------------------------------------------------------------
       Mesh    1
       Max CFL number:  0.16E-01 at (25,23,2)
       Max divergence:  0.16E-05 at (23,22,2)
       Min divergence: -0.18E-05 at (9,22,13)
       Max VN number:   0.14E-01 at (15,20,4)
       No. of Lagrangian Particles:  6
       Radiation Loss to Boundaries:        -0.020 kW
       Mesh    2
       Max CFL number:  0.10E-01 at (22,17,4)
       Max divergence:  0.19E-05 at (11,20,2)
       Min divergence: -0.20E-05 at (23,5,13)
       Max VN number:   0.75E-02 at (18,6,14)
       Radiation Loss to Boundaries:        -0.018 kW
       Mesh    3
       Max CFL number:  0.89E+00 at (5,23,2)
       Max divergence:  0.57E+00 at (7,23,3)
       Min divergence: -0.53E+01 at (6,22,2)
       Max VN number:   0.14E+00 at (5,23,2)
       Total Heat Release Rate:           3505.610 kW
       Radiation Loss to Boundaries:     -6061.569 kW
       Mesh    4
       Max CFL number:  0.49E-01 at (6,1,2)
       Max divergence:  0.46E-04 at (6,1,2)
       Min divergence: -0.16E-05 at (3,20,13)
       Max VN number:   0.10E-01 at (6,1,1)
       Total Heat Release Rate:              0.002 kW
       Radiation Loss to Boundaries:        -0.009 kW
 
       Time Step       5   July  7, 2023  08:37:21
       Step Size:    0.997E-01 s, Total Time:       1.15 s
       Pressure Iterations: 10
       Maximum Velocity Error:  0.73E-01 on Mesh 3 at (6,25,1)
       Maximum Pressure Error:  0.26E+03 on Mesh 3 at (6,22,2)
       ---------------------------------------------------------------
       Mesh    1
       Max CFL number:  0.14E-01 at (25,22,1)
       Max divergence:  0.16E-05 at (23,3,2)
       Min divergence: -0.29E-05 at (25,21,7)
       Max VN number:   0.60E-02 at (15,20,4)
       No. of Lagrangian Particles:  6
       Radiation Loss to Boundaries:        -0.020 kW
       Mesh    2
       Max CFL number:  0.57E-02 at (25,1,2)
       Max divergence:  0.19E-05 at (11,20,2)
       Min divergence: -0.21E-05 at (23,5,13)
       Max VN number:   0.37E-02 at (18,14,1)
       Radiation Loss to Boundaries:        -0.018 kW
       Mesh    3
       Max CFL number:  0.90E+00 at (5,23,2)
       Max divergence:  0.57E+01 at (6,22,2)
       Min divergence: -0.30E-05 at (1,19,7)
       Max VN number:   0.84E-01 at (6,24,2)
       Total Heat Release Rate:           4353.123 kW
       Radiation Loss to Boundaries:      -547.197 kW
       Mesh    4
       Max CFL number:  0.37E-01 at (6,1,2)
       Max divergence:  0.61E-04 at (6,1,2)
       Min divergence: -0.56E-05 at (7,1,4)
       Max VN number:   0.44E-02 at (19,3,1)
       Total Heat Release Rate:              0.003 kW
       Radiation Loss to Boundaries:        -0.009 kW
 
       Time Step       6   July  7, 2023  08:37:22
       Step Size:    0.997E-01 s, Total Time:       1.25 s
       Pressure Iterations: 10
       Maximum Velocity Error:  0.53E-01 on Mesh 3 at (7,25,1)
       Maximum Pressure Error:  0.28E+03 on Mesh 3 at (6,22,2)
       ---------------------------------------------------------------
       Mesh    1
       Max CFL number:  0.18E-01 at (25,22,3)
       Max divergence:  0.31E-05 at (25,21,5)
       Min divergence: -0.18E-05 at (9,22,13)
       Max VN number:   0.63E-02 at (15,20,4)
       No. of Lagrangian Particles:  6
       Radiation Loss to Boundaries:        -0.019 kW
       Mesh    2
       Max CFL number:  0.60E-02 at (25,1,1)
       Max divergence:  0.19E-05 at (11,20,2)
       Min divergence: -0.19E-05 at (23,5,13)
       Max VN number:   0.37E-02 at (18,6,14)
       Radiation Loss to Boundaries:        -0.015 kW
       Mesh    3
       Max CFL number:  0.95E+00 at (6,22,2)
       Max divergence:  0.92E+00 at (6,23,3)
       Min divergence: -0.51E+01 at (6,22,2)
       Max VN number:   0.22E+00 at (6,22,2)
       Total Heat Release Rate:           4512.540 kW
       Radiation Loss to Boundaries:     -4220.594 kW
       Mesh    4
       Max CFL number:  0.47E-01 at (6,1,3)
       Max divergence:  0.28E-03 at (6,1,2)
       Min divergence: -0.16E-05 at (3,20,13)
       Max VN number:   0.42E-02 at (6,1,1)
       Total Heat Release Rate:              0.006 kW
       Radiation Loss to Boundaries:        -0.008 kW
 
       Time Step       7   July  7, 2023  08:37:22
       Step Size:    0.997E-01 s, Total Time:       1.35 s
       Pressure Iterations: 10
       Maximum Velocity Error:  0.25E-01 on Mesh 3 at (7,25,1)
       Maximum Pressure Error:  0.14E+03 on Mesh 3 at (6,22,2)
       ---------------------------------------------------------------
       Mesh    1
       Max CFL number:  0.11E-01 at (25,21,7)
       Max divergence:  0.19E-05 at (25,25,6)
       Min divergence: -0.18E-05 at (9,22,13)
       Max VN number:   0.55E-02 at (22,16,14)
       No. of Lagrangian Particles:  6
       Radiation Loss to Boundaries:        -0.019 kW
       Mesh    2
       Max CFL number:  0.71E-02 at (25,1,5)
       Max divergence:  0.19E-05 at (11,20,2)
       Min divergence: -0.17E-05 at (6,17,13)
       Max VN number:   0.37E-02 at (18,6,14)
       Radiation Loss to Boundaries:        -0.015 kW
       Mesh    3
       Max CFL number:  0.70E+00 at (6,22,2)
       Max divergence:  0.78E+01 at (6,22,2)
       Min divergence: -0.16E-05 at (24,19,13)
       Max VN number:   0.13E+00 at (6,20,3)
       Total Heat Release Rate:           4674.631 kW
       Radiation Loss to Boundaries:     -1654.977 kW
       Mesh    4
       Max CFL number:  0.23E-01 at (6,1,3)
       Max divergence:  0.33E-03 at (6,1,2)
       Min divergence: -0.28E-05 at (6,2,2)
       Max VN number:   0.46E-02 at (6,1,1)
       Total Heat Release Rate:              0.008 kW
       Radiation Loss to Boundaries:        -0.008 kW
 
       Time Step       8   July  7, 2023  08:37:22
       Step Size:    0.110E+00 s, Total Time:       1.46 s
       Pressure Iterations: 10
       Maximum Velocity Error:  0.94E-01 on Mesh 3 at (6,25,1)
       Maximum Pressure Error:  0.12E+04 on Mesh 3 at (6,22,2)
       ---------------------------------------------------------------
       Mesh    1
       Max CFL number:  0.19E-01 at (25,20,6)
       Max divergence:  0.26E-05 at (25,21,8)
       Min divergence: -0.18E-05 at (9,22,13)
       Max VN number:   0.61E-02 at (22,16,14)
       No. of Lagrangian Particles:  6
       Radiation Loss to Boundaries:        -0.019 kW
       Mesh    2
       Max CFL number:  0.89E-02 at (25,1,3)
       Max divergence:  0.19E-05 at (11,20,2)
       Min divergence: -0.18E-05 at (23,5,13)
       Max VN number:   0.41E-02 at (18,6,14)
       Radiation Loss to Boundaries:        -0.015 kW
       Mesh    3
       Max CFL number:  0.88E+00 at (6,21,2)
       Max divergence:  0.48E+00 at (7,22,4)
       Min divergence: -0.12E+02 at (6,22,2)
       Max VN number:   0.95E+00 at (6,22,2)
       Total Heat Release Rate:           4787.928 kW
       Radiation Loss to Boundaries:     -9013.768 kW
       Mesh    4
       Max CFL number:  0.51E-01 at (6,1,3)
       Max divergence:  0.62E-03 at (6,1,2)
       Min divergence: -0.21E-05 at (6,2,2)
       Max VN number:   0.55E-02 at (21,3,14)
       Total Heat Release Rate:              0.011 kW
       Radiation Loss to Boundaries:        -0.008 kW
 
       Time Step       9   July  7, 2023  08:37:23
       Step Size:    0.499E-01 s, Total Time:       1.51 s
       Pressure Iterations: 10
       Maximum Velocity Error:  0.76E-01 on Mesh 3 at (6,25,1)
       Maximum Pressure Error:  0.61E+03 on Mesh 3 at (6,22,2)
       ---------------------------------------------------------------
       Mesh    1
       Max CFL number:  0.14E-01 at (25,22,1)
       Max divergence:  0.19E-05 at (25,21,1)
       Min divergence: -0.48E-05 at (25,22,4)
       Max VN number:   0.35E-02 at (15,20,4)
       No. of Lagrangian Particles:  6
       Radiation Loss to Boundaries:        -0.016 kW
       Mesh    2
       Max CFL number:  0.40E-02 at (25,1,1)
       Max divergence:  0.19E-05 at (11,20,2)
       Min divergence: -0.23E-05 at (25,1,4)
       Max VN number:   0.22E-02 at (25,9,4)
       Radiation Loss to Boundaries:        -0.011 kW
       Mesh    3
       Max CFL number:  0.88E+00 at (6,22,2)
       Max divergence:  0.61E+01 at (6,21,2)
       Min divergence: -0.12E-05 at (20,8,13)
       Max VN number:   0.72E-01 at (6,24,2)
       Total Heat Release Rate:           4649.867 kW
       Radiation Loss to Boundaries:      -818.747 kW
       Mesh    4
       Max CFL number:  0.40E-01 at (6,1,2)
       Max divergence:  0.71E-03 at (6,1,2)
       Min divergence: -0.84E-05 at (8,1,4)
       Max VN number:   0.53E-02 at (6,1,1)
       Total Heat Release Rate:              0.014 kW
       Radiation Loss to Boundaries:        -0.007 kW
 
       Time Step      10   July  7, 2023  08:37:23
       Step Size:    0.499E-01 s, Total Time:       1.56 s
       Pressure Iterations: 10
       Maximum Velocity Error:  0.37E-01 on Mesh 3 at (7,25,1)
       Maximum Pressure Error:  0.16E+03 on Mesh 3 at (6,21,2)
       ---------------------------------------------------------------
       Mesh    1
       Max CFL number:  0.76E-02 at (25,21,7)
       Max divergence:  0.25E-05 at (25,21,8)
       Min divergence: -0.19E-05 at (9,22,13)
       Max VN number:   0.28E-02 at (15,20,4)
       No. of Lagrangian Particles:  6
       Radiation Loss to Boundaries:        -0.016 kW
       Mesh    2
       Max CFL number:  0.25E-02 at (22,17,4)
       Max divergence:  0.19E-05 at (11,20,2)
       Min divergence: -0.19E-05 at (23,5,13)
       Max VN number:   0.19E-02 at (22,7,1)
       Radiation Loss to Boundaries:        -0.011 kW
       Mesh    3
       Max CFL number:  0.54E+00 at (6,21,2)
       Max divergence:  0.19E+01 at (6,22,2)
       Min divergence: -0.80E-02 at (7,21,3)
       Max VN number:   0.80E-01 at (5,23,3)
       Total Heat Release Rate:           4758.316 kW
       Radiation Loss to Boundaries:     -2906.544 kW
       Mesh    4
       Max CFL number:  0.26E-01 at (6,1,3)
       Max divergence:  0.86E-03 at (6,1,2)
       Min divergence: -0.28E-05 at (6,2,2)
       Max VN number:   0.28E-02 at (6,1,1)
       Total Heat Release Rate:              0.016 kW
       Radiation Loss to Boundaries:        -0.008 kW
 
       Time Step      20   July  7, 2023  08:37:27
       Step Size:    0.651E-01 s, Total Time:       2.21 s
       Pressure Iterations: 3
       Maximum Velocity Error:  0.75E-01 on Mesh 3 at (6,25,3)
       Maximum Pressure Error:  0.56E+02 on Mesh 3 at (6,22,2)
       ---------------------------------------------------------------
       Mesh    1
       Max CFL number:  0.39E-01 at (25,22,7)
       Max divergence:  0.21E-03 at (25,20,2)
       Min divergence: -0.15E-05 at (10,19,13)
       Max VN number:   0.76E-02 at (25,22,7)
       No. of Lagrangian Particles:  6
       Radiation Loss to Boundaries:         2.890 kW
       Mesh    2
       Max CFL number:  0.11E-01 at (25,1,6)
       Max divergence:  0.30E-05 at (25,1,11)
       Min divergence: -0.24E-05 at (25,1,3)
       Max VN number:   0.34E-02 at (24,10,6)
       Radiation Loss to Boundaries:        -0.010 kW
       Mesh    3
       Max CFL number:  0.94E+00 at (6,22,3)
       Max divergence:  0.28E+01 at (6,23,2)
       Min divergence: -0.60E+01 at (6,22,3)
       Max VN number:   0.49E+00 at (6,20,3)
       Total Heat Release Rate:           6617.584 kW
       Radiation Loss to Boundaries:     -4314.077 kW
       Mesh    4
       Max CFL number:  0.71E-01 at (6,1,2)
       Max divergence:  0.10E-01 at (6,1,3)
       Min divergence: -0.16E-05 at (3,20,13)
       Max VN number:   0.12E-01 at (6,1,3)
       Total Heat Release Rate:              0.105 kW
       Radiation Loss to Boundaries:         4.865 kW
 
       Time Step      30   July  7, 2023  08:37:32
       Step Size:    0.457E-01 s, Total Time:       2.72 s
       Pressure Iterations: 10
       Maximum Velocity Error:  0.14E-02 on Mesh 1 at (25,25,1)
       Maximum Pressure Error:  0.11E+03 on Mesh 3 at (6,22,2)
       ---------------------------------------------------------------
       Mesh    1
       Max CFL number:  0.79E-01 at (25,22,7)
       Max divergence:  0.57E-02 at (25,22,7)
       Min divergence: -0.14E-06 at (1,2,2)
       Max VN number:   0.18E-01 at (25,22,7)
       No. of Lagrangian Particles:  6
       Total Heat Release Rate:              0.104 kW
       Radiation Loss to Boundaries:        55.752 kW
       Mesh    2
       Max CFL number:  0.16E-01 at (25,1,6)
       Max divergence:  0.26E-05 at (25,1,11)
       Min divergence: -0.11E-04 at (25,1,4)
       Max VN number:   0.97E-02 at (25,9,4)
       Radiation Loss to Boundaries:        -0.009 kW
       Mesh    3
       Max CFL number:  0.97E+00 at (6,22,2)
       Max divergence:  0.37E+01 at (6,21,2)
       Min divergence: -0.10E+01 at (7,22,5)
       Max VN number:   0.59E+00 at (5,23,3)
       Total Heat Release Rate:           7106.221 kW
       Radiation Loss to Boundaries:     -2038.540 kW
       Mesh    4
       Max CFL number:  0.81E-01 at (6,1,3)
       Max divergence:  0.27E-01 at (6,1,4)
       Min divergence:  0.14E-05 at (25,25,3)
       Max VN number:   0.20E-01 at (6,1,4)
       Total Heat Release Rate:              0.315 kW
       Radiation Loss to Boundaries:       119.199 kW
 
       Time Step      40   July  7, 2023  08:37:38
       Step Size:    0.314E-01 s, Total Time:       3.07 s
       Pressure Iterations: 10
       Maximum Velocity Error:  0.71E-03 on Mesh 3 at (7,25,14)
       Maximum Pressure Error:  0.27E+03 on Mesh 3 at (6,22,2)
       ---------------------------------------------------------------
       Mesh    1
       Max CFL number:  0.88E-01 at (25,22,7)
       Max divergence:  0.25E-01 at (25,22,6)
       Min divergence:  0.63E-06 at (1,2,2)
       Max VN number:   0.22E-01 at (25,22,7)
       No. of Lagrangian Particles:  6
       Total Heat Release Rate:              2.575 kW
       Radiation Loss to Boundaries:        72.398 kW
       Mesh    2
       Max CFL number:  0.21E-01 at (25,1,7)
       Max divergence:  0.42E-03 at (25,1,5)
       Min divergence: -0.10E-05 at (1,20,13)
       Max VN number:   0.11E-01 at (25,9,4)
       Radiation Loss to Boundaries:        10.990 kW
       Mesh    3
       Max CFL number:  0.96E+00 at (6,22,2)
       Max divergence:  0.51E+01 at (7,22,2)
       Min divergence: -0.73E+00 at (6,22,6)
       Max VN number:   0.63E+00 at (5,23,3)
       Total Heat Release Rate:           7072.304 kW
       Radiation Loss to Boundaries:     -1844.232 kW
       Mesh    4
       Max CFL number:  0.77E-01 at (5,1,3)
       Max divergence:  0.44E-01 at (5,1,5)
       Min divergence:  0.16E-05 at (25,25,3)
       Max VN number:   0.25E-01 at (5,1,4)
       Total Heat Release Rate:              0.851 kW
       Radiation Loss to Boundaries:       169.772 kW
 
       Time Step      50   July  7, 2023  08:37:45
       Step Size:    0.314E-01 s, Total Time:       3.39 s
       Pressure Iterations: 10
       Maximum Velocity Error:  0.26E-03 on Mesh 3 at (9,25,14)
       Maximum Pressure Error:  0.31E+03 on Mesh 3 at (6,22,2)
       ---------------------------------------------------------------
       Mesh    1
       Max CFL number:  0.13E+00 at (25,22,8)
       Max divergence:  0.62E-01 at (25,22,6)
       Min divergence:  0.83E-06 at (7,21,5)
       Max VN number:   0.28E-01 at (25,23,6)
       No. of Lagrangian Particles:  6
       Total Heat Release Rate:             21.280 kW
       Radiation Loss to Boundaries:        70.547 kW
       Mesh    2
       Max CFL number:  0.33E-01 at (25,1,7)
       Max divergence:  0.17E-02 at (25,1,2)
       Min divergence: -0.13E-06 at (2,25,2)
       Max VN number:   0.51E-02 at (25,9,4)
       Radiation Loss to Boundaries:        38.385 kW
       Mesh    3
       Max CFL number:  0.95E+00 at (6,22,2)
       Max divergence:  0.42E+01 at (7,22,2)
       Min divergence: -0.68E+00 at (8,22,4)
       Max VN number:   0.54E+00 at (5,21,3)
       Total Heat Release Rate:           6306.506 kW
       Radiation Loss to Boundaries:     -1162.026 kW
       Mesh    4
       Max CFL number:  0.11E+00 at (5,1,4)
       Max divergence:  0.80E-01 at (5,1,6)
       Min divergence: -0.55E-03 at (4,1,5)
       Max VN number:   0.36E-01 at (5,1,5)
       Total Heat Release Rate:              3.506 kW
       Radiation Loss to Boundaries:       197.396 kW
 
       Time Step      60   July  7, 2023  08:37:51
       Step Size:    0.273E-01 s, Total Time:       3.67 s
       Pressure Iterations: 10
       Maximum Velocity Error:  0.19E-02 on Mesh 1 at (25,22,7)
       Maximum Pressure Error:  0.21E+03 on Mesh 3 at (6,22,2)
       ---------------------------------------------------------------
       Mesh    1
       Max CFL number:  0.17E+00 at (25,22,8)
       Max divergence:  0.79E-01 at (25,23,6)
       Min divergence: -0.22E+00 at (25,22,8)
       Max VN number:   0.25E-01 at (25,23,6)
       No. of Lagrangian Particles:  6
       Total Heat Release Rate:             42.951 kW
       Radiation Loss to Boundaries:        65.760 kW
       Mesh    2
       Max CFL number:  0.40E-01 at (25,1,8)
       Max divergence:  0.59E-02 at (25,1,7)
       Min divergence:  0.50E-06 at (1,24,4)
       Max VN number:   0.27E-02 at (25,1,7)
       Total Heat Release Rate:              0.002 kW
       Radiation Loss to Boundaries:        41.330 kW
       Mesh    3
       Max CFL number:  0.85E+00 at (6,22,2)
       Max divergence:  0.43E+01 at (5,22,2)
       Min divergence: -0.73E+00 at (8,22,7)
       Max VN number:   0.76E+00 at (5,22,3)
       Total Heat Release Rate:           5748.916 kW
       Radiation Loss to Boundaries:      -923.250 kW
       Mesh    4
       Max CFL number:  0.12E+00 at (5,1,5)
       Max divergence:  0.79E-01 at (5,1,7)
       Min divergence: -0.54E-01 at (3,1,6)
       Max VN number:   0.43E-01 at (5,1,5)
       Total Heat Release Rate:              5.683 kW
       Radiation Loss to Boundaries:       221.544 kW
 
       Time Step      70   July  7, 2023  08:37:55
       Step Size:    0.330E-01 s, Total Time:       3.98 s
       Pressure Iterations: 10
       Maximum Velocity Error:  0.58E-03 on Mesh 3 at (1,25,1)
       Maximum Pressure Error:  0.11E+03 on Mesh 3 at (6,21,2)
       ---------------------------------------------------------------
       Mesh    1
       Max CFL number:  0.29E+00 at (25,22,8)
       Max divergence:  0.10E+00 at (25,22,8)
       Min divergence: -0.49E-01 at (24,23,8)
       Max VN number:   0.40E-01 at (25,22,5)
       No. of Lagrangian Particles:  6
       Total Heat Release Rate:             43.726 kW
       Radiation Loss to Boundaries:       110.221 kW
       Mesh    2
       Max CFL number:  0.61E-01 at (25,1,9)
       Max divergence:  0.27E-01 at (25,1,8)
       Min divergence:  0.54E-06 at (1,24,4)
       Max VN number:   0.95E-02 at (25,1,7)
       Total Heat Release Rate:              0.023 kW
       Radiation Loss to Boundaries:        44.739 kW
       Mesh    3
       Max CFL number:  0.81E+00 at (6,21,2)
       Max divergence:  0.37E+01 at (6,21,2)
       Min divergence: -0.76E+00 at (9,22,7)
       Max VN number:   0.51E+00 at (5,21,3)
       Total Heat Release Rate:           5879.183 kW
       Radiation Loss to Boundaries:     -1493.122 kW
       Mesh    4
       Max CFL number:  0.15E+00 at (4,1,6)
       Max divergence:  0.57E-01 at (4,1,8)
       Min divergence: -0.49E-01 at (3,1,7)
       Max VN number:   0.57E-01 at (5,1,5)
       Total Heat Release Rate:              5.202 kW
       Radiation Loss to Boundaries:       213.538 kW
 
       Time Step      80   July  7, 2023  08:37:59
       Step Size:    0.440E-01 s, Total Time:       4.39 s
       Pressure Iterations: 1
       Maximum Velocity Error:  0.96E-01 on Mesh 3 at (7,25,14)
       Maximum Pressure Error:  0.52E+02 on Mesh 3 at (6,22,2)
       ---------------------------------------------------------------
       Mesh    1
       Max CFL number:  0.47E+00 at (25,21,9)
       Max divergence:  0.11E+00 at (25,22,9)
       Min divergence: -0.74E-01 at (25,20,9)
       Max VN number:   0.10E+00 at (25,22,10)
       No. of Lagrangian Particles:  6
       Total Heat Release Rate:             26.494 kW
       Radiation Loss to Boundaries:       120.112 kW
       Mesh    2
       Max CFL number:  0.10E+00 at (25,1,11)
       Max divergence:  0.37E-01 at (25,1,9)
       Min divergence:  0.16E-05 at (1,24,5)
       Max VN number:   0.25E-01 at (25,1,8)
       Total Heat Release Rate:              0.113 kW
       Radiation Loss to Boundaries:        51.870 kW
       Mesh    3
       Max CFL number:  0.93E+00 at (1,21,9)
       Max divergence:  0.39E+01 at (6,22,2)
       Min divergence: -0.48E+00 at (8,21,7)
       Max VN number:   0.47E+00 at (2,24,6)
       Total Heat Release Rate:           5297.949 kW
       Radiation Loss to Boundaries:     -1409.616 kW
       Mesh    4
       Max CFL number:  0.26E+00 at (7,1,14)
       Max divergence:  0.40E-01 at (4,1,10)
       Min divergence: -0.57E-01 at (3,1,8)
       Max VN number:   0.74E-01 at (4,1,7)
       Total Heat Release Rate:              3.067 kW
       Radiation Loss to Boundaries:       191.592 kW
 
       Time Step      90   July  7, 2023  08:38:02
       Step Size:    0.354E-01 s, Total Time:       4.81 s
       Pressure Iterations: 1
       Maximum Velocity Error:  0.20E+00 on Mesh 3 at (0,24,14)
       Maximum Pressure Error:  0.56E+02 on Mesh 3 at (5,21,2)
       ---------------------------------------------------------------
       Mesh    1
       Max CFL number:  0.46E+00 at (25,23,9)
       Max divergence:  0.13E+00 at (25,23,13)
       Min divergence: -0.91E-01 at (25,21,12)
       Max VN number:   0.15E+00 at (25,21,11)
       No. of Lagrangian Particles:  6
       Total Heat Release Rate:             31.305 kW
       Radiation Loss to Boundaries:       117.797 kW
       Mesh    2
       Max CFL number:  0.14E+00 at (25,1,14)
       Max divergence:  0.26E-01 at (25,1,12)
       Min divergence:  0.18E-05 at (1,24,5)
       Max VN number:   0.24E-01 at (25,1,10)
       Total Heat Release Rate:              0.145 kW
       Radiation Loss to Boundaries:        53.517 kW
       Mesh    3
       Max CFL number:  0.71E+00 at (1,21,8)
       Max divergence:  0.29E+01 at (6,21,2)
       Min divergence: -0.36E+00 at (7,22,5)
       Max VN number:   0.99E+00 at (2,23,9)
       Total Heat Release Rate:           5526.639 kW
       Radiation Loss to Boundaries:     -1773.088 kW
       Mesh    4
       Max CFL number:  0.40E+00 at (6,1,14)
       Max divergence:  0.65E-01 at (6,2,13)
       Min divergence: -0.11E+00 at (7,2,13)
       Max VN number:   0.11E+00 at (8,1,14)
       Total Heat Release Rate:              1.629 kW
       Radiation Loss to Boundaries:       181.474 kW
 
       Time Step     100   July  7, 2023  08:38:06
       Step Size:    0.471E-01 s, Total Time:       5.24 s
       Pressure Iterations: 3
       Maximum Velocity Error:  0.42E-01 on Mesh 3 at (6,25,13)
       Maximum Pressure Error:  0.49E+02 on Mesh 3 at (5,21,2)
       ---------------------------------------------------------------
       Mesh    1
       Max CFL number:  0.67E+00 at (25,21,14)
       Max divergence:  0.16E+00 at (25,20,13)
       Min divergence: -0.20E+00 at (25,21,8)
       Max VN number:   0.20E+00 at (25,21,13)
       No. of Lagrangian Particles:  6
       Total Heat Release Rate:             60.590 kW
       Radiation Loss to Boundaries:        86.672 kW
       Mesh    2
       Max CFL number:  0.41E+00 at (25,1,14)
       Max divergence:  0.27E-01 at (25,3,14)
       Min divergence: -0.53E-01 at (24,1,14)
       Max VN number:   0.51E-01 at (24,1,14)
       Total Heat Release Rate:              0.155 kW
       Radiation Loss to Boundaries:        50.316 kW
       Mesh    3
       Max CFL number:  0.97E+00 at (5,21,2)
       Max divergence:  0.29E+01 at (5,21,2)
       Min divergence: -0.48E+00 at (7,23,6)
       Max VN number:   0.52E+00 at (4,23,4)
       Total Heat Release Rate:           5815.085 kW
       Radiation Loss to Boundaries:     -1978.880 kW
       Mesh    4
       Max CFL number:  0.68E+00 at (6,2,14)
       Max divergence:  0.68E-01 at (9,4,14)
       Min divergence: -0.86E-01 at (7,4,14)
       Max VN number:   0.45E+00 at (7,3,14)
       Total Heat Release Rate:              1.522 kW
       Radiation Loss to Boundaries:       171.174 kW
 
       Time Step     200   July  7, 2023  08:39:02
       Step Size:    0.464E-01 s, Total Time:       9.07 s
       Pressure Iterations: 1
       Maximum Velocity Error:  0.16E+00 on Mesh 1 at (25,21,8)
       Maximum Pressure Error:  0.54E+02 on Mesh 3 at (5,22,2)
       ---------------------------------------------------------------
       Mesh    1
       Max CFL number:  0.75E+00 at (25,21,7)
       Max divergence:  0.96E-01 at (25,23,7)
       Min divergence: -0.98E-01 at (24,21,10)
       Max VN number:   0.23E+00 at (13,15,14)
       No. of Lagrangian Particles:  6
       Total Heat Release Rate:             27.110 kW
       Radiation Loss to Boundaries:        89.580 kW
       Mesh    2
       Max CFL number:  0.49E+00 at (25,1,14)
       Max divergence:  0.56E-01 at (23,2,13)
       Min divergence: -0.75E-01 at (24,1,13)
       Max VN number:   0.40E+00 at (12,6,14)
       Total Heat Release Rate:              0.596 kW
       Radiation Loss to Boundaries:        63.895 kW
       Mesh    3
       Max CFL number:  0.92E+00 at (5,23,2)
       Max divergence:  0.33E+01 at (5,23,2)
       Min divergence: -0.60E+00 at (5,22,3)
       Max VN number:   0.63E+00 at (5,23,7)
       Total Heat Release Rate:           5683.032 kW
[...]
       Total Heat Release Rate:             46.553 kW
       Radiation Loss to Boundaries:       201.532 kW
       Mesh    2
       Max CFL number:  0.34E+00 at (21,5,14)
       Max divergence:  0.45E-01 at (20,3,13)
       Min divergence: -0.32E-01 at (25,2,13)
       Max VN number:   0.14E+00 at (9,24,14)
       No. of Lagrangian Particles:  608
       Total Heat Release Rate:              0.749 kW
       Radiation Loss to Boundaries:        68.372 kW
       Mesh    3
       Max CFL number:  0.83E+00 at (1,21,8)
       Max divergence:  0.33E+01 at (7,23,2)
       Min divergence: -0.10E+01 at (8,22,4)
       Max VN number:   0.63E+00 at (2,21,9)
       No. of Lagrangian Particles:  44916
       Total Heat Release Rate:           5999.198 kW
       Radiation Loss to Boundaries:     -1466.969 kW
       Mesh    4
       Max CFL number:  0.38E+00 at (4,1,14)
       Max divergence:  0.38E-01 at (4,1,6)
       Min divergence: -0.66E-01 at (4,1,12)
       Max VN number:   0.23E+00 at (4,8,14)
       No. of Lagrangian Particles:  195
       Total Heat Release Rate:              3.513 kW
       Radiation Loss to Boundaries:       271.354 kW
 
       Time Step    1448   July  7, 2023  08:49:50
       Step Size:    0.900E-02 s, Total Time:      60.00 s
       Pressure Iterations: 10
       Maximum Velocity Error:  0.49E-02 on Mesh 1 at (25,21,7)
       Maximum Pressure Error:  0.18E+03 on Mesh 3 at (6,22,2)
       ---------------------------------------------------------------
       Mesh    1
       Max CFL number:  0.13E+00 at (25,21,8)
       Max divergence:  0.17E+00 at (25,22,8)
       Min divergence: -0.10E+00 at (25,21,10)
       Max VN number:   0.33E-01 at (25,21,9)
       No. of Lagrangian Particles:  5202
       Total Heat Release Rate:             43.795 kW
       Radiation Loss to Boundaries:       166.882 kW
       Mesh    2
       Max CFL number:  0.74E-01 at (18,1,14)
       Max divergence:  0.54E-01 at (25,1,13)
       Min divergence: -0.31E-01 at (25,1,11)
       Max VN number:   0.29E-01 at (19,7,14)
       No. of Lagrangian Particles:  524
       Total Heat Release Rate:              0.811 kW
       Radiation Loss to Boundaries:        61.237 kW
       Mesh    3
       Max CFL number:  0.19E+00 at (1,21,9)
       Max divergence:  0.33E+01 at (6,23,2)
       Min divergence: -0.66E+00 at (7,22,5)
       Max VN number:   0.99E-01 at (5,22,3)
       No. of Lagrangian Particles:  56684
       Total Heat Release Rate:           6163.929 kW
       Radiation Loss to Boundaries:     -1317.996 kW
       Mesh    4
       Max CFL number:  0.86E-01 at (8,12,14)
       Max divergence:  0.51E-01 at (3,3,13)
       Min divergence: -0.87E-01 at (1,1,12)
       Max VN number:   0.33E-01 at (6,5,14)
       No. of Lagrangian Particles:  242
       Total Heat Release Rate:              4.565 kW
       Radiation Loss to Boundaries:       265.781 kW
 


 DEVICE Activation Times

   1  Spr_01                                                      No Activation
   2  Spr_02                                                      No Activation
   3  Spr_03                                                      No Activation
   4  Spr_04                                                      No Activation
   5  Spr_05                                                      No Activation
   6  Spr_06                                                      No Activation
   7  Spr_07                                                      No Activation
   8  Spr_08                                                      No Activation
   9  Spr_09                                                      No Activation
  10  Spr_10                                                      No Activation
  11  Spr_11                                                      No Activation
  12  Spr_12                                                      No Activation
  13  Spr_13                                                      No Activation
  14  Spr_14                                                      No Activation
  15  Spr_15                                                      No Activation
  16  Spr_16                                                      No Activation
  17  Spr_17                                                      No Activation
  18  Spr_18                                                      No Activation
  19  Spr_19                                                      No Activation
  20  Spr_20                                                      No Activation
  21  Spr_21                                                      No Activation
  22  Spr_22                                                      No Activation
  23  Spr_23                                                      No Activation
  24  Spr_24                                                      No Activation
  25  Spr_25                                                      No Activation
  26  Spr_26                                                      No Activation
  27  Spr_27                                                      No Activation
  28  Spr_28                                                      No Activation
  29  Spr_29                                                      No Activation
  30  Spr_30                                                      No Activation
  31  Spr_31                                                      No Activation
  32  Spr_32                                                      No Activation
  33  Spr_33                                                      No Activation
  34  Spr_34                                                      No Activation
  35  Spr_35                                                      No Activation
  36  Spr_36                                                          36.9 s
  37  Spr_37                                                      No Activation
  38  Spr_38                                                      No Activation
  39  Spr_39                                                      No Activation
  40  Spr_40                                                      No Activation
  41  Spr_41                                                      No Activation
  42  Spr_42                                                      No Activation
  43  Spr_43                                                      No Activation
  44  Spr_44                                                      No Activation
  45  Spr_45                                                      No Activation
  46  Spr_46                                                          39.2 s
  47  Spr_47                                                          58.2 s
  48  Spr_48                                                      No Activation
  49  Spr_49                                                      No Activation
  50  Spr_50                                                      No Activation
  51  Spr_51                                                      No Activation
  52  Spr_52                                                      No Activation
  53  Spr_53                                                      No Activation
  54  Spr_54                                                      No Activation
  55  Spr_55                                                      No Activation
  56  Spr_56                                                      No Activation
  57  Spr_57                                                      No Activation
  58  Spr_58                                                      No Activation
  59  Spr_59                                                      No Activation
  60  Spr_60                                                      No Activation
  61  Spr_61                                                      No Activation
  62  Spr_62                                                      No Activation
  63  Spr_63                                                      No Activation
  64  Spr_64                                                      No Activation
  65  Spr_65                                                      No Activation
  66  Spr_66                                                      No Activation
  67  Spr_67                                                      No Activation
  68  Spr_68                                                      No Activation
  69  Spr_69                                                      No Activation
  70  Spr_70                                                      No Activation
  71  Spr_71                                                      No Activation
  72  Spr_72                                                      No Activation
  73  Spr_73                                                      No Activation
  74  Spr_74                                                      No Activation
  75  Spr_75                                                      No Activation
  76  Spr_76                                                      No Activation
  77  Spr_77                                                      No Activation
  78  Spr_78                                                      No Activation
  79  Spr_79                                                      No Activation
  80  Spr_80                                                      No Activation
  81  Spr_81                                                      No Activation
  82  Spr_82                                                      No Activation
  83  Spr_83                                                      No Activation
  84  Spr_84                                                      No Activation
  85  Spr_85                                                      No Activation
  86  Spr_86                                                      No Activation
  87  Spr_87                                                      No Activation
  88  Spr_88                                                      No Activation
  89  Spr_89                                                      No Activation
  90  Spr_90                                                      No Activation
  91  Spr_91                                                      No Activation
  92  Spr_92                                                      No Activation
  93  Spr_93                                                      No Activation
  94  Spr_94                                                      No Activation
  95  Spr_95                                                      No Activation
  96  Spr_96                                                      No Activation
  97  Spr_97                                                      No Activation
  98  Spr_98                                                      No Activation
  99  Spr_99                                                      No Activation
 100  Spr_100                                                     No Activation
 101  vent link 1                                                 No Activation
 102  vent link 2                                                 No Activation
 103  vent link 3                                                 No Activation
 104  vent link 4                                                 No Activation
 105  vent link 5                                                 No Activation


 CONTROL Activation Times

   1  Act01                                                       F No Activation
   2  Act02                                                       F No Activation
   3  Act03                                                       F No Activation
   4  Act04                                                       F No Activation
   5  Act05                                                       F No Activation
   6  Act06                                                       F No Activation
   7  Act07                                                       F No Activation
   8  Act08                                                       F No Activation
   9  Act09                                                       F No Activation
  10  Act10                                                       F No Activation
  11  Act11                                                       F No Activation
  12  Act12                                                       F No Activation
  13  Act13                                                       F No Activation
  14  Act14                                                       F No Activation
  15  Act15                                                       F No Activation
  16  Act16                                                       F No Activation
  17  Act17                                                       F No Activation
  18  Act18                                                       F No Activation
  19  Act19                                                       F No Activation
  20  Act20                                                       F No Activation
  21  Act21                                                       F No Activation
  22  Act22                                                       F No Activation
  23  Act23                                                       F No Activation
  24  Act24                                                       F No Activation
  25  Act25                                                       F No Activation
  26  Act26                                                       F No Activation
  27  Act27                                                       F No Activation
  28  Act28                                                       F No Activation
  29  Act29                                                       F No Activation
  30  Act30                                                       F No Activation
  31  Act31                                                       F No Activation
  32  Act32                                                       F No Activation
  33  Act33                                                       F No Activation
  34  Act34                                                       F No Activation
  35  Act35                                                       F No Activation
  36  Act36                                                       T    36.9 s
  37  Act37                                                       F No Activation
  38  Act38                                                       F No Activation
  39  Act39                                                       F No Activation
  40  Act40                                                       F No Activation
  41  Act41                                                       F No Activation
  42  Act42                                                       F No Activation
  43  Act43                                                       F No Activation
  44  Act44                                                       F No Activation
  45  Act45                                                       F No Activation
  46  Act46                                                       T    39.2 s
  47  Act47                                                       T    58.2 s
  48  Act48                                                       F No Activation
  49  Act49                                                       F No Activation
  50  Act50                                                       F No Activation
  51  Act51                                                       F No Activation
  52  Act52                                                       F No Activation
  53  Act53                                                       F No Activation
  54  Act54                                                       F No Activation
  55  Act55                                                       F No Activation
  56  Act56                                                       F No Activation
  57  Act57                                                       F No Activation
  58  Act58                                                       F No Activation
  59  Act59                                                       F No Activation
  60  Act60                                                       F No Activation
  61  Act61                                                       F No Activation
  62  Act62                                                       F No Activation
  63  Act63                                                       F No Activation
  64  Act64                                                       F No Activation
  65  Act65                                                       F No Activation
  66  Act66                                                       F No Activation
  67  Act67                                                       F No Activation
  68  Act68                                                       F No Activation
  69  Act69                                                       F No Activation
  70  Act70                                                       F No Activation
  71  Act71                                                       F No Activation
  72  Act72                                                       F No Activation
  73  Act73                                                       F No Activation
  74  Act74                                                       F No Activation
  75  Act75                                                       F No Activation
  76  Act76                                                       F No Activation
  77  Act77                                                       F No Activation
  78  Act78                                                       F No Activation
  79  Act79                                                       F No Activation
  80  Act80                                                       F No Activation
  81  Act81                                                       F No Activation
  82  Act82                                                       F No Activation
  83  Act83                                                       F No Activation
  84  Act84                                                       F No Activation
  85  Act85                                                       F No Activation
  86  Act86                                                       F No Activation
  87  Act87                                                       F No Activation
  88  Act88                                                       F No Activation
  89  Act89                                                       F No Activation
  90  Act90                                                       F No Activation
  91  Act91                                                       F No Activation
  92  Act92                                                       F No Activation
  93  Act93                                                       F No Activation
  94  Act94                                                       F No Activation
  95  Act95                                                       F No Activation
  96  Act96                                                       F No Activation
  97  Act97                                                       F No Activation
  98  Act98                                                       F No Activation
  99  Act99                                                       F No Activation
 100  Act100                                                      F No Activation


 Time Stepping Wall Clock Time (s):      751.432
 Total Elapsed Wall Clock Time (s):      764.205

STOP: FDS completed successfully (CHID: case002)
